truncated_ligand
  PyMOL3.1          3D                             0

 56 56  0  0  1  0  0  0  0  0999 V2000
   18.9435   33.2825   51.7619 H   0  0  0  0  0  0  0  0  0  0  0  0
   20.6571   32.8044   51.7184 H   0  0  0  0  0  0  0  0  0  0  0  0
   12.2051   30.1343   61.0736 H   0  0  0  0  0  0  0  0  0  0  0  0
   17.5641   31.7347   56.4620 H   0  0  0  0  0  0  0  0  0  0  0  0
   19.5119   31.9201   52.7557 H   0  0  0  0  0  0  0  0  0  0  0  0
   12.4979   31.0639   60.5856 C   0  0  0  0  0  0  0  0  0  0  0  0
   13.9097   31.2717   60.7543 O   0  0  0  0  0  0  0  0  0  0  0  0
   14.3958   32.3831   60.1317 C   0  0  0  0  0  0  0  0  0  0  0  0
   15.9045   32.5022   60.3713 C   0  0  1  0  0  0  0  0  0  0  0  0
   16.4144   33.7015   59.6838 N   0  0  0  0  0  0  0  0  0  0  0  0
   17.8169   33.8076   59.8112 N   0  0  0  0  0  0  0  0  0  0  0  0
   18.7043   33.9629   58.7398 C   0  0  0  0  0  0  0  0  0  0  0  0
   18.1993   33.5838   57.3282 C   0  0  1  0  0  0  0  0  0  0  0  0
   19.0146   34.2708   56.3365 N   0  0  0  0  0  0  0  0  0  0  0  0
   18.7074   35.5125   55.8270 C   0  0  0  0  0  0  0  0  0  0  0  0
   19.7158   35.9743   54.7399 C   0  0  2  0  0  0  0  0  0  0  0  0
   19.6738   37.5030   54.4839 C   0  0  0  0  0  0  0  0  0  0  0  0
   20.5650   37.8951   53.2979 C   0  0  0  0  0  0  0  0  0  0  0  0
   20.1415   38.2792   55.7238 C   0  0  0  0  0  0  0  0  0  0  0  0
   19.4622   35.1368   53.5309 N   0  0  0  0  0  0  0  0  0  0  0  0
   20.0754   33.8718   53.5138 C   0  0  0  0  0  0  0  0  0  0  0  0
   19.7752   32.8978   52.3521 C   0  0  0  0  0  0  0  0  0  0  0  0
   20.9125   33.5685   54.3742 O   0  0  0  0  0  0  0  0  0  0  0  0
   18.2063   35.3576   52.8193 C   0  0  0  0  0  0  0  0  0  0  0  0
   17.7033   36.1411   56.1427 O   0  0  0  0  0  0  0  0  0  0  0  0
   18.3441   32.0605   57.1502 C   0  0  0  0  0  0  0  0  0  0  0  0
   19.8883   34.2705   58.9196 O   0  0  0  0  0  0  0  0  0  0  0  0
   18.2651   34.0119   61.1924 C   0  0  0  0  0  0  0  0  0  0  0  0
   17.7402   32.8781   62.0783 C   0  0  0  0  0  0  0  0  0  0  0  0
   16.2395   32.6319   61.8642 C   0  0  0  0  0  0  0  0  0  0  0  0
   13.7348   33.1287   59.4197 O   0  0  0  0  0  0  0  0  0  0  0  0
   11.9716   31.9260   61.0161 H   0  0  0  0  0  0  0  0  0  0  0  0
   12.2516   31.0133   59.5193 H   0  0  0  0  0  0  0  0  0  0  0  0
   16.3720   31.6095   59.9386 H   0  0  0  0  0  0  0  0  0  0  0  0
   16.0425   33.7984   58.7390 H   0  0  0  0  0  0  0  0  0  0  0  0
   17.1684   33.9149   57.1934 H   0  0  0  0  0  0  0  0  0  0  0  0
   19.9513   33.9136   56.1530 H   0  0  0  0  0  0  0  0  0  0  0  0
   20.7226   35.7464   55.1158 H   0  0  0  0  0  0  0  0  0  0  0  0
   18.6486   37.8276   54.2696 H   0  0  0  0  0  0  0  0  0  0  0  0
   21.6000   37.5718   53.4578 H   0  0  0  0  0  0  0  0  0  0  0  0
   20.2113   37.4480   52.3635 H   0  0  0  0  0  0  0  0  0  0  0  0
   20.5679   38.9811   53.1563 H   0  0  0  0  0  0  0  0  0  0  0  0
   19.5028   38.0801   56.5887 H   0  0  0  0  0  0  0  0  0  0  0  0
   21.1699   38.0135   55.9937 H   0  0  0  0  0  0  0  0  0  0  0  0
   20.1117   39.3577   55.5374 H   0  0  0  0  0  0  0  0  0  0  0  0
   17.4254   34.7375   53.2684 H   0  0  0  0  0  0  0  0  0  0  0  0
   17.9042   36.4056   52.8577 H   0  0  0  0  0  0  0  0  0  0  0  0
   18.3210   35.0977   51.7650 H   0  0  0  0  0  0  0  0  0  0  0  0
   19.3627   31.8462   56.7974 H   0  0  0  0  0  0  0  0  0  0  0  0
   18.2646   31.5377   58.1123 H   0  0  0  0  0  0  0  0  0  0  0  0
   19.3574   34.0517   61.2482 H   0  0  0  0  0  0  0  0  0  0  0  0
   17.8782   34.9815   61.5292 H   0  0  0  0  0  0  0  0  0  0  0  0
   17.9406   33.0986   63.1319 H   0  0  0  0  0  0  0  0  0  0  0  0
   18.2819   31.9557   61.8327 H   0  0  0  0  0  0  0  0  0  0  0  0
   15.6682   33.4581   62.3079 H   0  0  0  0  0  0  0  0  0  0  0  0
   15.9418   31.7250   62.4024 H   0  0  0  0  0  0  0  0  0  0  0  0
  3  6  1  0  0  0  0
  6 32  1  0  0  0  0
  6 33  1  0  0  0  0
  6  7  1  0  0  0  0
  7  8  1  0  0  0  0
  8  9  1  0  0  0  0
  9 34  1  0  0  0  0
  9 10  1  0  0  0  0
 10 11  1  0  0  0  0
 10 35  1  0  0  0  0
 11 12  1  0  0  0  0
 11 28  1  0  0  0  0
 12 13  1  0  0  0  0
 13 26  1  0  0  0  0
 13 36  1  0  0  0  0
 13 14  1  0  0  0  0
 14 15  1  0  0  0  0
 14 37  1  0  0  0  0
 15 16  1  0  0  0  0
 16 17  1  0  0  0  0
 16 38  1  0  0  0  0
 17 18  1  0  0  0  0
 17 19  1  0  0  0  0
 17 39  1  0  0  0  0
 18 40  1  0  0  0  0
 18 41  1  0  0  0  0
 18 42  1  0  0  0  0
 19 43  1  0  0  0  0
 19 44  1  0  0  0  0
 19 45  1  0  0  0  0
 16 20  1  0  0  0  0
 20 21  1  0  0  0  0
 20 24  1  0  0  0  0
 21 22  1  0  0  0  0
  1 22  1  0  0  0  0
  2 22  1  0  0  0  0
  5 22  1  0  0  0  0
 21 23  2  0  0  0  0
 24 46  1  0  0  0  0
 24 47  1  0  0  0  0
 24 48  1  0  0  0  0
 15 25  2  0  0  0  0
  4 26  1  0  0  0  0
 26 49  1  0  0  0  0
 26 50  1  0  0  0  0
 12 27  2  0  0  0  0
 28 29  1  0  0  0  0
 28 51  1  0  0  0  0
 28 52  1  0  0  0  0
 29 53  1  0  0  0  0
 29 54  1  0  0  0  0
  9 30  1  0  0  0  0
 29 30  1  0  0  0  0
 30 55  1  0  0  0  0
 30 56  1  0  0  0  0
  8 31  2  0  0  0  0
M  END
$$$$
