 xtb: 6.7.1 (edcfbbe)
          10022509153D

151157  0     0  0            999 V2000
   -8.3676   -4.8013    3.4577 C   0  0  0  0  0  0  0  0  0  0  0  0
   -6.8139   -5.9347    5.4666 N   0  0  0  0  0  0  0  0  0  0  0  0
   -6.6457   -6.2000    2.4123 O   0  0  0  0  0  0  0  0  0  0  0  0
   -6.8788   -5.0453    3.2184 C   0  0  0  0  0  0  0  0  0  0  0  0
   -3.5730   -4.6992    2.5685 N   0  0  0  0  0  0  0  0  0  0  0  0
   -3.3444    0.8321    4.0971 O   0  0  0  0  0  0  0  0  0  0  0  0
   -6.8454   -6.0018    1.0312 C   0  0  0  0  0  0  0  0  0  0  0  0
   -0.7543    3.0481    3.0366 N   0  0  0  0  0  0  0  0  0  0  0  0
    2.3471    1.4489   -8.0326 O   0  0  0  0  0  0  0  0  0  0  0  0
   -6.1460   -5.2834    4.5258 C   0  0  0  0  0  0  0  0  0  0  0  0
    0.5153    3.4092    3.5013 N   0  0  0  0  0  0  0  0  0  0  0  0
    4.2454    2.6410   -1.9748 O   0  0  0  0  0  0  0  0  0  0  0  0
   -6.2299   -6.1773    6.6270 C   0  0  0  0  0  0  0  0  0  0  0  0
    2.5247    3.3232    0.4860 N   0  0  0  0  0  0  0  0  0  0  0  0
    1.8925    5.4755    0.2485 O   0  0  0  0  0  0  0  0  0  0  0  0
   -4.9370   -5.7770    6.9238 C   0  0  0  0  0  0  0  0  0  0  0  0
    3.9385    4.8709   -1.9510 N   0  0  0  0  0  0  0  0  0  0  0  0
   -0.1920    2.0077   -0.9733 O   0  0  0  0  0  0  0  0  0  0  0  0
   -4.2307   -5.0983    5.9474 C   0  0  0  0  0  0  0  0  0  0  0  0
    3.8776    2.4684   -6.7053 N   0  0  0  0  0  0  0  0  0  0  0  0
    2.7042    3.6897    3.0897 O   0  0  0  0  0  0  0  0  0  0  0  0
   -4.8284   -4.8441    4.7139 C   0  0  0  0  0  0  0  0  0  0  0  0
    4.7755   -2.9403   -8.2990 N   0  0  0  0  0  0  0  0  0  0  0  0
   -3.4222    2.5508    2.6593 O   0  0  0  0  0  0  0  0  0  0  0  0
   -4.0719   -4.0973    3.7010 C   0  0  0  0  0  0  0  0  0  0  0  0
   -1.0965   -0.2999    0.3391 N   0  0  0  0  0  0  0  0  0  0  0  0
   -3.5311   -6.1197    2.3274 C   0  0  0  0  0  0  0  0  0  0  0  0
   -2.3010   -6.7579    2.9706 C   0  0  0  0  0  0  0  0  0  0  0  0
   -3.7239   -2.7659    3.7377 C   0  0  0  0  0  0  0  0  0  0  0  0
   -4.0135   -1.8197    4.8604 C   0  0  0  0  0  0  0  0  0  0  0  0
   -5.1077   -0.7513    4.6271 C   0  0  0  0  0  0  0  0  0  0  0  0
   -5.4476   -0.1085    5.9745 C   0  0  0  0  0  0  0  0  0  0  0  0
   -6.3603   -1.3852    4.0248 C   0  0  0  0  0  0  0  0  0  0  0  0
   -4.6216    0.3415    3.6665 C   0  0  0  0  0  0  0  0  0  0  0  0
   -2.8389    1.8875    3.4882 C   0  0  0  0  0  0  0  0  0  0  0  0
   -1.4307    2.1705    3.9845 C   0  0  0  0  0  0  0  0  0  0  0  0
    1.5888    3.3627    2.6982 C   0  0  0  0  0  0  0  0  0  0  0  0
    1.3534    2.9392    1.2410 C   0  0  0  0  0  0  0  0  0  0  0  0
    2.7377    4.5924    0.1345 C   0  0  0  0  0  0  0  0  0  0  0  0
    4.1094    4.8513   -0.4968 C   0  0  0  0  0  0  0  0  0  0  0  0
    4.7464    6.1306    0.0635 C   0  0  0  0  0  0  0  0  0  0  0  0
    6.1338    6.3527   -0.5338 C   0  0  0  0  0  0  0  0  0  0  0  0
    4.8488    6.0121    1.5841 C   0  0  0  0  0  0  0  0  0  0  0  0
    4.0877    3.7012   -2.5837 C   0  0  0  0  0  0  0  0  0  0  0  0
    4.1631    3.6870   -4.1190 C   0  0  0  0  0  0  0  0  0  0  0  0
    2.7971    3.5307   -4.7918 C   0  0  0  0  0  0  0  0  0  0  0  0
    2.9742    3.5248   -6.3134 C   0  0  0  0  0  0  0  0  0  0  0  0
    3.4598    1.4698   -7.5011 C   0  0  0  0  0  0  0  0  0  0  0  0
    4.3845    0.3833   -7.6923 C   0  0  0  0  0  0  0  0  0  0  0  0
    4.9832   -0.6451   -7.8768 C   0  0  0  0  0  0  0  0  0  0  0  0
    5.7520   -1.8797   -8.0162 C   0  0  0  0  0  0  0  0  0  0  0  0
    4.0947   -2.7765   -9.5679 C   0  0  0  0  0  0  0  0  0  0  0  0
    5.2498   -4.2974   -8.1304 C   0  0  0  0  0  0  0  0  0  0  0  0
    6.8205   -1.6856   -9.1122 C   0  0  0  0  0  0  0  0  0  0  0  0
    6.4474   -2.1165   -6.6667 C   0  0  0  0  0  0  0  0  0  0  0  0
    5.1877    2.5442   -6.1025 C   0  0  0  0  0  0  0  0  0  0  0  0
    5.0817    2.5497   -4.5780 C   0  0  0  0  0  0  0  0  0  0  0  0
    3.3745    6.0830   -2.5109 C   0  0  0  0  0  0  0  0  0  0  0  0
    1.0685    1.4506    1.0775 C   0  0  0  0  0  0  0  0  0  0  0  0
    0.7146    1.0905   -0.3797 C   0  0  0  0  0  0  0  0  0  0  0  0
    0.1266   -0.3304   -0.4289 C   0  0  0  0  0  0  0  0  0  0  0  0
   -2.0639    0.5856   -0.2851 C   0  0  0  0  0  0  0  0  0  0  0  0
   -1.4788    1.9940   -0.3734 C   0  0  0  0  0  0  0  0  0  0  0  0
    0.5955    3.9980    4.8324 C   0  0  0  0  0  0  0  0  0  0  0  0
   -0.0664    3.0799    5.8554 C   0  0  0  0  0  0  0  0  0  0  0  0
   -1.4902    2.7633    5.4041 C   0  0  0  0  0  0  0  0  0  0  0  0
   -2.9578   -2.5276    2.5575 C   0  0  0  0  0  0  0  0  0  0  0  0
   -2.8710   -3.7619    1.8626 C   0  0  0  0  0  0  0  0  0  0  0  0
   -2.1585   -3.8716    0.6737 C   0  0  0  0  0  0  0  0  0  0  0  0
   -1.5595   -2.7421    0.1542 C   0  0  0  0  0  0  0  0  0  0  0  0
   -1.6482   -1.5126    0.8197 C   0  0  0  0  0  0  0  0  0  0  0  0
   -2.3153   -1.4155    2.0268 C   0  0  0  0  0  0  0  0  0  0  0  0
    4.7522    4.8872   -4.5468 F   0  0  0  0  0  0  0  0  0  0  0  0
   -8.8842   -4.6432    2.5152 H   0  0  0  0  0  0  0  0  0  0  0  0
   -8.7915   -5.6629    3.9636 H   0  0  0  0  0  0  0  0  0  0  0  0
   -8.4971   -3.9217    4.0802 H   0  0  0  0  0  0  0  0  0  0  0  0
   -6.4300   -4.1729    2.7163 H   0  0  0  0  0  0  0  0  0  0  0  0
   -6.2002   -5.1982    0.6548 H   0  0  0  0  0  0  0  0  0  0  0  0
   -6.5774   -6.9421    0.5542 H   0  0  0  0  0  0  0  0  0  0  0  0
   -7.8868   -5.7626    0.7991 H   0  0  0  0  0  0  0  0  0  0  0  0
   -6.8370   -6.7108    7.3453 H   0  0  0  0  0  0  0  0  0  0  0  0
   -4.4992   -5.9895    7.8855 H   0  0  0  0  0  0  0  0  0  0  0  0
   -3.2181   -4.7662    6.1254 H   0  0  0  0  0  0  0  0  0  0  0  0
   -4.4412   -6.5708    2.7279 H   0  0  0  0  0  0  0  0  0  0  0  0
   -3.5144   -6.2805    1.2473 H   0  0  0  0  0  0  0  0  0  0  0  0
   -1.3929   -6.2921    2.5951 H   0  0  0  0  0  0  0  0  0  0  0  0
   -2.3340   -6.6365    4.0507 H   0  0  0  0  0  0  0  0  0  0  0  0
   -2.2749   -7.8191    2.7405 H   0  0  0  0  0  0  0  0  0  0  0  0
   -4.3254   -2.4143    5.7212 H   0  0  0  0  0  0  0  0  0  0  0  0
   -3.0910   -1.2988    5.1235 H   0  0  0  0  0  0  0  0  0  0  0  0
   -4.5622    0.3479    6.4095 H   0  0  0  0  0  0  0  0  0  0  0  0
   -6.2070    0.6596    5.8482 H   0  0  0  0  0  0  0  0  0  0  0  0
   -5.8287   -0.8558    6.6654 H   0  0  0  0  0  0  0  0  0  0  0  0
   -6.7319   -2.1683    4.6806 H   0  0  0  0  0  0  0  0  0  0  0  0
   -7.1403   -0.6401    3.8919 H   0  0  0  0  0  0  0  0  0  0  0  0
   -6.1345   -1.8241    3.0563 H   0  0  0  0  0  0  0  0  0  0  0  0
   -5.3281    1.1766    3.6268 H   0  0  0  0  0  0  0  0  0  0  0  0
   -4.5103   -0.0600    2.6541 H   0  0  0  0  0  0  0  0  0  0  0  0
   -0.8796    1.2235    4.0165 H   0  0  0  0  0  0  0  0  0  0  0  0
   -1.3293    3.8769    2.8721 H   0  0  0  0  0  0  0  0  0  0  0  0
    0.5169    3.5320    0.8553 H   0  0  0  0  0  0  0  0  0  0  0  0
    3.2652    2.6461    0.3766 H   0  0  0  0  0  0  0  0  0  0  0  0
    4.7665    4.0042   -0.2769 H   0  0  0  0  0  0  0  0  0  0  0  0
    4.0944    6.9766   -0.1653 H   0  0  0  0  0  0  0  0  0  0  0  0
    6.5313    7.3065   -0.1978 H   0  0  0  0  0  0  0  0  0  0  0  0
    6.8090    5.5646   -0.2074 H   0  0  0  0  0  0  0  0  0  0  0  0
    6.1105    6.3499   -1.6201 H   0  0  0  0  0  0  0  0  0  0  0  0
    5.2723    6.9230    1.9980 H   0  0  0  0  0  0  0  0  0  0  0  0
    3.8694    5.8537    2.0312 H   0  0  0  0  0  0  0  0  0  0  0  0
    5.4814    5.1735    1.8651 H   0  0  0  0  0  0  0  0  0  0  0  0
    2.3634    2.5885   -4.4546 H   0  0  0  0  0  0  0  0  0  0  0  0
    2.1174    4.3343   -4.5106 H   0  0  0  0  0  0  0  0  0  0  0  0
    3.3826    4.4880   -6.6374 H   0  0  0  0  0  0  0  0  0  0  0  0
    2.0184    3.3519   -6.8111 H   0  0  0  0  0  0  0  0  0  0  0  0
    4.7090   -3.0764  -10.4311 H   0  0  0  0  0  0  0  0  0  0  0  0
    3.1959   -3.3934   -9.5595 H   0  0  0  0  0  0  0  0  0  0  0  0
    3.7925   -1.7371   -9.6906 H   0  0  0  0  0  0  0  0  0  0  0  0
    6.0979   -4.5536   -8.7837 H   0  0  0  0  0  0  0  0  0  0  0  0
    5.5311   -4.4681   -7.0945 H   0  0  0  0  0  0  0  0  0  0  0  0
    4.4259   -4.9675   -8.3699 H   0  0  0  0  0  0  0  0  0  0  0  0
    6.3653   -1.3742  -10.0489 H   0  0  0  0  0  0  0  0  0  0  0  0
    7.5293   -0.9220   -8.8040 H   0  0  0  0  0  0  0  0  0  0  0  0
    7.3571   -2.6182   -9.2693 H   0  0  0  0  0  0  0  0  0  0  0  0
    5.7095   -2.3473   -5.9033 H   0  0  0  0  0  0  0  0  0  0  0  0
    7.1634   -2.9292   -6.7412 H   0  0  0  0  0  0  0  0  0  0  0  0
    6.9788   -1.2142   -6.3744 H   0  0  0  0  0  0  0  0  0  0  0  0
    5.7838    1.6955   -6.4357 H   0  0  0  0  0  0  0  0  0  0  0  0
    5.6658    3.4726   -6.4301 H   0  0  0  0  0  0  0  0  0  0  0  0
    6.0705    2.6853   -4.1395 H   0  0  0  0  0  0  0  0  0  0  0  0
    4.6689    1.6113   -4.2107 H   0  0  0  0  0  0  0  0  0  0  0  0
    3.0055    5.9181   -3.5149 H   0  0  0  0  0  0  0  0  0  0  0  0
    2.5419    6.3924   -1.8768 H   0  0  0  0  0  0  0  0  0  0  0  0
    4.1218    6.8752   -2.5424 H   0  0  0  0  0  0  0  0  0  0  0  0
    1.9442    0.8737    1.3736 H   0  0  0  0  0  0  0  0  0  0  0  0
    0.2293    1.1743    1.7129 H   0  0  0  0  0  0  0  0  0  0  0  0
    1.6059    1.1577   -1.0128 H   0  0  0  0  0  0  0  0  0  0  0  0
    0.8208   -1.0386    0.0239 H   0  0  0  0  0  0  0  0  0  0  0  0
   -0.0372   -0.6080   -1.4856 H   0  0  0  0  0  0  0  0  0  0  0  0
   -2.3284    0.2290   -1.2973 H   0  0  0  0  0  0  0  0  0  0  0  0
   -2.9690    0.6210    0.3220 H   0  0  0  0  0  0  0  0  0  0  0  0
   -1.4424    2.4321    0.6305 H   0  0  0  0  0  0  0  0  0  0  0  0
   -2.0999    2.6224   -1.0144 H   0  0  0  0  0  0  0  0  0  0  0  0
    1.6525    4.1504    5.0502 H   0  0  0  0  0  0  0  0  0  0  0  0
    0.0910    4.9712    4.8124 H   0  0  0  0  0  0  0  0  0  0  0  0
   -0.0752    3.5726    6.8265 H   0  0  0  0  0  0  0  0  0  0  0  0
    0.5071    2.1562    5.9392 H   0  0  0  0  0  0  0  0  0  0  0  0
   -2.0904    3.6762    5.3875 H   0  0  0  0  0  0  0  0  0  0  0  0
   -1.9611    2.0487    6.0773 H   0  0  0  0  0  0  0  0  0  0  0  0
   -2.0773   -4.8154    0.1557 H   0  0  0  0  0  0  0  0  0  0  0  0
   -1.0196   -2.8077   -0.7786 H   0  0  0  0  0  0  0  0  0  0  0  0
   -2.3059   -0.4672    2.5322 H   0  0  0  0  0  0  0  0  0  0  0  0
  1  4  1  0  0  0  0
  3  4  1  0  0  0  0
  3  7  1  0  0  0  0
  2 10  4  0  0  0  0
  4 10  1  0  0  0  0
  8 11  1  0  0  0  0
  2 13  4  0  0  0  0
 13 16  4  0  0  0  0
 16 19  4  0  0  0  0
 10 22  4  0  0  0  0
 19 22  4  0  0  0  0
  5 25  1  0  0  0  0
 22 25  1  0  0  0  0
  5 27  1  0  0  0  0
 27 28  1  0  0  0  0
 25 29  2  0  0  0  0
 29 30  1  0  0  0  0
 30 31  1  0  0  0  0
 31 32  1  0  0  0  0
 31 33  1  0  0  0  0
  6 34  1  0  0  0  0
 31 34  1  0  0  0  0
  6 35  1  0  0  0  0
 24 35  2  0  0  0  0
  8 36  1  0  0  0  0
 35 36  1  0  0  0  0
 11 37  4  0  0  0  0
 21 37  2  0  0  0  0
 14 38  1  0  0  0  0
 37 38  1  0  0  0  0
 14 39  4  0  0  0  0
 15 39  2  0  0  0  0
 17 40  1  0  0  0  0
 39 40  1  0  0  0  0
 40 41  1  0  0  0  0
 41 42  1  0  0  0  0
 41 43  1  0  0  0  0
 12 44  2  0  0  0  0
 17 44  4  0  0  0  0
 44 45  1  0  0  0  0
 45 46  1  0  0  0  0
 20 47  1  0  0  0  0
 46 47  1  0  0  0  0
  9 48  2  0  0  0  0
 20 48  4  0  0  0  0
 48 49  1  0  0  0  0
 49 50  3  0  0  0  0
 23 51  1  0  0  0  0
 50 51  1  0  0  0  0
 23 52  1  0  0  0  0
 23 53  1  0  0  0  0
 51 54  1  0  0  0  0
 51 55  1  0  0  0  0
 20 56  1  0  0  0  0
 45 57  1  0  0  0  0
 56 57  1  0  0  0  0
 17 58  1  0  0  0  0
 38 59  1  0  0  0  0
 18 60  1  0  0  0  0
 59 60  1  0  0  0  0
 26 61  1  0  0  0  0
 60 61  1  0  0  0  0
 26 62  1  0  0  0  0
 18 63  1  0  0  0  0
 62 63  1  0  0  0  0
 11 64  1  0  0  0  0
 64 65  1  0  0  0  0
 36 66  1  0  0  0  0
 65 66  1  0  0  0  0
 29 67  4  0  0  0  0
  5 68  1  0  0  0  0
 67 68  4  0  0  0  0
 68 69  4  0  0  0  0
 69 70  4  0  0  0  0
 26 71  1  0  0  0  0
 70 71  4  0  0  0  0
 67 72  4  0  0  0  0
 71 72  4  0  0  0  0
 45 73  1  0  0  0  0
  1 74  1  0  0  0  0
  1 75  1  0  0  0  0
  1 76  1  0  0  0  0
  4 77  1  0  0  0  0
  7 78  1  0  0  0  0
  7 79  1  0  0  0  0
  7 80  1  0  0  0  0
 13 81  1  0  0  0  0
 16 82  1  0  0  0  0
 19 83  1  0  0  0  0
 27 84  1  0  0  0  0
 27 85  1  0  0  0  0
 28 86  1  0  0  0  0
 28 87  1  0  0  0  0
 28 88  1  0  0  0  0
 30 89  1  0  0  0  0
 30 90  1  0  0  0  0
 32 91  1  0  0  0  0
 32 92  1  0  0  0  0
 32 93  1  0  0  0  0
 33 94  1  0  0  0  0
 33 95  1  0  0  0  0
 33 96  1  0  0  0  0
 34 97  1  0  0  0  0
 34 98  1  0  0  0  0
 36 99  1  0  0  0  0
  8100  1  0  0  0  0
 38101  1  0  0  0  0
 14102  1  0  0  0  0
 40103  1  0  0  0  0
 41104  1  0  0  0  0
 42105  1  0  0  0  0
 42106  1  0  0  0  0
 42107  1  0  0  0  0
 43108  1  0  0  0  0
 43109  1  0  0  0  0
 43110  1  0  0  0  0
 46111  1  0  0  0  0
 46112  1  0  0  0  0
 47113  1  0  0  0  0
 47114  1  0  0  0  0
 52115  1  0  0  0  0
 52116  1  0  0  0  0
 52117  1  0  0  0  0
 53118  1  0  0  0  0
 53119  1  0  0  0  0
 53120  1  0  0  0  0
 54121  1  0  0  0  0
 54122  1  0  0  0  0
 54123  1  0  0  0  0
 55124  1  0  0  0  0
 55125  1  0  0  0  0
 55126  1  0  0  0  0
 56127  1  0  0  0  0
 56128  1  0  0  0  0
 57129  1  0  0  0  0
 57130  1  0  0  0  0
 58131  1  0  0  0  0
 58132  1  0  0  0  0
 58133  1  0  0  0  0
 59134  1  0  0  0  0
 59135  1  0  0  0  0
 60136  1  0  0  0  0
 61137  1  0  0  0  0
 61138  1  0  0  0  0
 62139  1  0  0  0  0
 62140  1  0  0  0  0
 63141  1  0  0  0  0
 63142  1  0  0  0  0
 64143  1  0  0  0  0
 64144  1  0  0  0  0
 65145  1  0  0  0  0
 65146  1  0  0  0  0
 66147  1  0  0  0  0
 66148  1  0  0  0  0
 69149  1  0  0  0  0
 70150  1  0  0  0  0
 72151  1  0  0  0  0
M  END
