 xtb: 6.7.1 (edcfbbe)
          10092510473D

151157  0     0  0            999 V2000
   10.7919   15.0354   23.3263 C   0  0  0  0  0  0  0  0  0  0  0  0
   12.6105   12.8876   22.8847 N   0  0  0  0  0  0  0  0  0  0  0  0
   10.8640   14.1797   21.0079 O   0  0  0  0  0  0  0  0  0  0  0  0
   11.5813   14.8770   22.0292 C   0  0  0  0  0  0  0  0  0  0  0  0
   13.9318   15.9812   19.8833 N   0  0  0  0  0  0  0  0  0  0  0  0
   16.8340   19.5083   23.6100 O   0  0  0  0  0  0  0  0  0  0  0  0
    9.6056   14.7257   20.6642 C   0  0  0  0  0  0  0  0  0  0  0  0
   18.9949   21.8838   23.6103 N   0  0  0  0  0  0  0  0  0  0  0  0
   26.3293   16.9596   15.3359 O   0  0  0  0  0  0  0  0  0  0  0  0
   12.8242   14.0390   22.2606 C   0  0  0  0  0  0  0  0  0  0  0  0
   20.3612   22.1951   23.6158 N   0  0  0  0  0  0  0  0  0  0  0  0
   23.8160   22.1051   18.5105 O   0  0  0  0  0  0  0  0  0  0  0  0
   13.6177   12.0623   23.0952 C   0  0  0  0  0  0  0  0  0  0  0  0
   21.0934   22.7252   20.1301 N   0  0  0  0  0  0  0  0  0  0  0  0
   19.4851   23.6944   18.8726 O   0  0  0  0  0  0  0  0  0  0  0  0
   14.9168   12.3416   22.7015 C   0  0  0  0  0  0  0  0  0  0  0  0
   22.0219   22.6541   17.2728 N   0  0  0  0  0  0  0  0  0  0  0  0
   19.5647   20.5260   18.5408 O   0  0  0  0  0  0  0  0  0  0  0  0
   15.1519   13.5438   22.0637 C   0  0  0  0  0  0  0  0  0  0  0  0
   24.6034   18.4360   15.4084 N   0  0  0  0  0  0  0  0  0  0  0  0
   22.2631   22.5431   22.4676 O   0  0  0  0  0  0  0  0  0  0  0  0
   14.0968   14.4258   21.8228 C   0  0  0  0  0  0  0  0  0  0  0  0
   26.0721   17.2202    9.9193 N   0  0  0  0  0  0  0  0  0  0  0  0
   16.4937   21.1113   25.1477 O   0  0  0  0  0  0  0  0  0  0  0  0
   14.4067   15.6871   21.1420 C   0  0  0  0  0  0  0  0  0  0  0  0
   16.7290   20.6758   18.9190 N   0  0  0  0  0  0  0  0  0  0  0  0
   13.2650   15.0530   19.0041 C   0  0  0  0  0  0  0  0  0  0  0  0
   14.2602   14.0822   18.3661 C   0  0  0  0  0  0  0  0  0  0  0  0
   15.2641   16.6765   21.5730 C   0  0  0  0  0  0  0  0  0  0  0  0
   15.9770   16.7379   22.8863 C   0  0  0  0  0  0  0  0  0  0  0  0
   15.3109   17.6268   23.9626 C   0  0  0  0  0  0  0  0  0  0  0  0
   15.9963   17.3628   25.3078 C   0  0  0  0  0  0  0  0  0  0  0  0
   13.8213   17.3092   24.0754 C   0  0  0  0  0  0  0  0  0  0  0  0
   15.4508   19.1149   23.6119 C   0  0  0  0  0  0  0  0  0  0  0  0
   17.2222   20.4644   24.4284 C   0  0  0  0  0  0  0  0  0  0  0  0
   18.7328   20.6658   24.3862 C   0  0  0  0  0  0  0  0  0  0  0  0
   21.0582   22.3046   22.4767 C   0  0  0  0  0  0  0  0  0  0  0  0
   20.2727   22.1508   21.1710 C   0  0  0  0  0  0  0  0  0  0  0  0
   20.6607   23.4309   19.0845 C   0  0  0  0  0  0  0  0  0  0  0  0
   21.8012   23.8242   18.1301 C   0  0  0  0  0  0  0  0  0  0  0  0
   21.5294   25.1183   17.3526 C   0  0  0  0  0  0  0  0  0  0  0  0
   22.7004   25.4300   16.4222 C   0  0  0  0  0  0  0  0  0  0  0  0
   21.3387   26.2634   18.3458 C   0  0  0  0  0  0  0  0  0  0  0  0
   23.0207   21.8300   17.6115 C   0  0  0  0  0  0  0  0  0  0  0  0
   23.2044   20.4973   16.8559 C   0  0  0  0  0  0  0  0  0  0  0  0
   24.2993   19.6628   17.5262 C   0  0  0  0  0  0  0  0  0  0  0  0
   24.4271   18.3066   16.8399 C   0  0  0  0  0  0  0  0  0  0  0  0
   25.4859   17.6492   14.7606 C   0  0  0  0  0  0  0  0  0  0  0  0
   25.3389   17.6316   13.3284 C   0  0  0  0  0  0  0  0  0  0  0  0
   25.2193   17.4417   12.1447 C   0  0  0  0  0  0  0  0  0  0  0  0
   24.8576   17.2971   10.7382 C   0  0  0  0  0  0  0  0  0  0  0  0
   27.0702   18.2207   10.2314 C   0  0  0  0  0  0  0  0  0  0  0  0
   25.8337   17.1666    8.4912 C   0  0  0  0  0  0  0  0  0  0  0  0
   24.0866   15.9662   10.6435 C   0  0  0  0  0  0  0  0  0  0  0  0
   23.9185   18.4719   10.3885 C   0  0  0  0  0  0  0  0  0  0  0  0
   23.6187   19.2526   14.7371 C   0  0  0  0  0  0  0  0  0  0  0  0
   23.5574   20.6438   15.3747 C   0  0  0  0  0  0  0  0  0  0  0  0
   21.0005   22.4230   16.2752 C   0  0  0  0  0  0  0  0  0  0  0  0
   20.0091   20.6573   20.9184 C   0  0  0  0  0  0  0  0  0  0  0  0
   18.9890   20.3329   19.8273 C   0  0  0  0  0  0  0  0  0  0  0  0
   17.6738   21.1263   19.9276 C   0  0  0  0  0  0  0  0  0  0  0  0
   17.3430   20.8841   17.6160 C   0  0  0  0  0  0  0  0  0  0  0  0
   18.6601   20.1041   17.5371 C   0  0  0  0  0  0  0  0  0  0  0  0
   20.9986   22.3430   24.9166 C   0  0  0  0  0  0  0  0  0  0  0  0
   20.7870   21.0740   25.7374 C   0  0  0  0  0  0  0  0  0  0  0  0
   19.2947   20.7647   25.8127 C   0  0  0  0  0  0  0  0  0  0  0  0
   15.3524   17.6232   20.5108 C   0  0  0  0  0  0  0  0  0  0  0  0
   14.5143   17.1526   19.4750 C   0  0  0  0  0  0  0  0  0  0  0  0
   14.3839   17.8794   18.2973 C   0  0  0  0  0  0  0  0  0  0  0  0
   15.1211   19.0315   18.1545 C   0  0  0  0  0  0  0  0  0  0  0  0
   16.0265   19.4831   19.1396 C   0  0  0  0  0  0  0  0  0  0  0  0
   16.1215   18.7722   20.3282 C   0  0  0  0  0  0  0  0  0  0  0  0
   22.0028   19.7757   16.9642 F   0  0  0  0  0  0  0  0  0  0  0  0
   11.4215   15.5024   24.0734 H   0  0  0  0  0  0  0  0  0  0  0  0
    9.9223   15.6626   23.1738 H   0  0  0  0  0  0  0  0  0  0  0  0
   10.4842   14.0593   23.6798 H   0  0  0  0  0  0  0  0  0  0  0  0
   11.8627   15.8727   21.6474 H   0  0  0  0  0  0  0  0  0  0  0  0
    9.6803   15.8042   20.4881 H   0  0  0  0  0  0  0  0  0  0  0  0
    9.3098   14.2238   19.7454 H   0  0  0  0  0  0  0  0  0  0  0  0
    8.8591   14.5277   21.4382 H   0  0  0  0  0  0  0  0  0  0  0  0
   13.3674   11.1404   23.6013 H   0  0  0  0  0  0  0  0  0  0  0  0
   15.7114   11.6370   22.8835 H   0  0  0  0  0  0  0  0  0  0  0  0
   16.1436   13.8063   21.7264 H   0  0  0  0  0  0  0  0  0  0  0  0
   12.5130   14.4925   19.5640 H   0  0  0  0  0  0  0  0  0  0  0  0
   12.7610   15.6322   18.2269 H   0  0  0  0  0  0  0  0  0  0  0  0
   14.7196   13.4596   19.1314 H   0  0  0  0  0  0  0  0  0  0  0  0
   13.7475   13.4387   17.6577 H   0  0  0  0  0  0  0  0  0  0  0  0
   15.0437   14.6294   17.8455 H   0  0  0  0  0  0  0  0  0  0  0  0
   16.0464   15.7283   23.2947 H   0  0  0  0  0  0  0  0  0  0  0  0
   16.9903   17.1105   22.7202 H   0  0  0  0  0  0  0  0  0  0  0  0
   15.7796   16.3537   25.6471 H   0  0  0  0  0  0  0  0  0  0  0  0
   17.0741   17.4724   25.2164 H   0  0  0  0  0  0  0  0  0  0  0  0
   15.6406   18.0636   26.0612 H   0  0  0  0  0  0  0  0  0  0  0  0
   13.3697   17.8849   24.8792 H   0  0  0  0  0  0  0  0  0  0  0  0
   13.3072   17.5455   23.1480 H   0  0  0  0  0  0  0  0  0  0  0  0
   13.6883   16.2520   24.2849 H   0  0  0  0  0  0  0  0  0  0  0  0
   14.9231   19.7325   24.3465 H   0  0  0  0  0  0  0  0  0  0  0  0
   15.0544   19.3160   22.6147 H   0  0  0  0  0  0  0  0  0  0  0  0
   19.1900   19.8247   23.8570 H   0  0  0  0  0  0  0  0  0  0  0  0
   18.4721   22.6535   24.0336 H   0  0  0  0  0  0  0  0  0  0  0  0
   19.3346   22.7046   21.2386 H   0  0  0  0  0  0  0  0  0  0  0  0
   22.0865   22.5708   20.2584 H   0  0  0  0  0  0  0  0  0  0  0  0
   22.7185   23.9520   18.7121 H   0  0  0  0  0  0  0  0  0  0  0  0
   20.6083   25.0085   16.7764 H   0  0  0  0  0  0  0  0  0  0  0  0
   23.6057   25.5730   17.0055 H   0  0  0  0  0  0  0  0  0  0  0  0
   22.8767   24.6225   15.7159 H   0  0  0  0  0  0  0  0  0  0  0  0
   22.5009   26.3407   15.8644 H   0  0  0  0  0  0  0  0  0  0  0  0
   20.4720   26.0837   18.9776 H   0  0  0  0  0  0  0  0  0  0  0  0
   22.2151   26.3676   18.9814 H   0  0  0  0  0  0  0  0  0  0  0  0
   21.1852   27.1969   17.8115 H   0  0  0  0  0  0  0  0  0  0  0  0
   25.2327   20.2220   17.4749 H   0  0  0  0  0  0  0  0  0  0  0  0
   24.0558   19.5143   18.5789 H   0  0  0  0  0  0  0  0  0  0  0  0
   23.5155   17.7246   17.0285 H   0  0  0  0  0  0  0  0  0  0  0  0
   25.2838   17.7564   17.2330 H   0  0  0  0  0  0  0  0  0  0  0  0
   26.7784   19.2384    9.9279 H   0  0  0  0  0  0  0  0  0  0  0  0
   27.2716   18.2151   11.3002 H   0  0  0  0  0  0  0  0  0  0  0  0
   27.9880   17.9632    9.7044 H   0  0  0  0  0  0  0  0  0  0  0  0
   26.7604   16.8598    8.0075 H   0  0  0  0  0  0  0  0  0  0  0  0
   25.0725   16.4285    8.2642 H   0  0  0  0  0  0  0  0  0  0  0  0
   25.5358   18.1365    8.0681 H   0  0  0  0  0  0  0  0  0  0  0  0
   23.3740   15.8991   11.4607 H   0  0  0  0  0  0  0  0  0  0  0  0
   23.5426   15.8966    9.7073 H   0  0  0  0  0  0  0  0  0  0  0  0
   24.7856   15.1387   10.7166 H   0  0  0  0  0  0  0  0  0  0  0  0
   24.4424   19.4200   10.4810 H   0  0  0  0  0  0  0  0  0  0  0  0
   23.5472   18.3648    9.3735 H   0  0  0  0  0  0  0  0  0  0  0  0
   23.0724   18.4764   11.0703 H   0  0  0  0  0  0  0  0  0  0  0  0
   23.8872   19.3379   13.6841 H   0  0  0  0  0  0  0  0  0  0  0  0
   22.6336   18.7771   14.8182 H   0  0  0  0  0  0  0  0  0  0  0  0
   22.8267   21.2453   14.8410 H   0  0  0  0  0  0  0  0  0  0  0  0
   24.5297   21.1321   15.3106 H   0  0  0  0  0  0  0  0  0  0  0  0
   20.9708   21.3857   15.9733 H   0  0  0  0  0  0  0  0  0  0  0  0
   20.0354   22.6718   16.7109 H   0  0  0  0  0  0  0  0  0  0  0  0
   21.1731   23.0575   15.4072 H   0  0  0  0  0  0  0  0  0  0  0  0
   20.9554   20.1900   20.6423 H   0  0  0  0  0  0  0  0  0  0  0  0
   19.6451   20.2076   21.8363 H   0  0  0  0  0  0  0  0  0  0  0  0
   18.7491   19.2573   19.9168 H   0  0  0  0  0  0  0  0  0  0  0  0
   17.8816   22.1778   19.7101 H   0  0  0  0  0  0  0  0  0  0  0  0
   17.2419   21.0491   20.9245 H   0  0  0  0  0  0  0  0  0  0  0  0
   16.6811   20.5772   16.8097 H   0  0  0  0  0  0  0  0  0  0  0  0
   17.5519   21.9538   17.5206 H   0  0  0  0  0  0  0  0  0  0  0  0
   19.1628   20.2595   16.5842 H   0  0  0  0  0  0  0  0  0  0  0  0
   18.4504   19.0295   17.6638 H   0  0  0  0  0  0  0  0  0  0  0  0
   22.0559   22.5361   24.7389 H   0  0  0  0  0  0  0  0  0  0  0  0
   20.5531   23.2045   25.4242 H   0  0  0  0  0  0  0  0  0  0  0  0
   21.1994   21.2111   26.7348 H   0  0  0  0  0  0  0  0  0  0  0  0
   21.3125   20.2463   25.2592 H   0  0  0  0  0  0  0  0  0  0  0  0
   18.7663   21.5616   26.3384 H   0  0  0  0  0  0  0  0  0  0  0  0
   19.1186   19.8311   26.3448 H   0  0  0  0  0  0  0  0  0  0  0  0
   13.7188   17.5633   17.5060 H   0  0  0  0  0  0  0  0  0  0  0  0
   14.9912   19.6107   17.2542 H   0  0  0  0  0  0  0  0  0  0  0  0
   16.7941   19.0697   21.1146 H   0  0  0  0  0  0  0  0  0  0  0  0
  1  4  1  0  0  0  0
  3  4  1  0  0  0  0
  3  7  1  0  0  0  0
  2 10  4  0  0  0  0
  4 10  1  0  0  0  0
  8 11  1  0  0  0  0
  2 13  4  0  0  0  0
 13 16  4  0  0  0  0
 16 19  4  0  0  0  0
 10 22  4  0  0  0  0
 19 22  4  0  0  0  0
  5 25  1  0  0  0  0
 22 25  1  0  0  0  0
  5 27  1  0  0  0  0
 27 28  1  0  0  0  0
 25 29  2  0  0  0  0
 29 30  1  0  0  0  0
 30 31  1  0  0  0  0
 31 32  1  0  0  0  0
 31 33  1  0  0  0  0
  6 34  1  0  0  0  0
 31 34  1  0  0  0  0
  6 35  1  0  0  0  0
 24 35  2  0  0  0  0
  8 36  1  0  0  0  0
 35 36  1  0  0  0  0
 11 37  4  0  0  0  0
 21 37  2  0  0  0  0
 14 38  1  0  0  0  0
 37 38  1  0  0  0  0
 14 39  4  0  0  0  0
 15 39  2  0  0  0  0
 17 40  1  0  0  0  0
 39 40  1  0  0  0  0
 40 41  1  0  0  0  0
 41 42  1  0  0  0  0
 41 43  1  0  0  0  0
 12 44  2  0  0  0  0
 17 44  4  0  0  0  0
 44 45  1  0  0  0  0
 45 46  1  0  0  0  0
 20 47  1  0  0  0  0
 46 47  1  0  0  0  0
  9 48  2  0  0  0  0
 20 48  4  0  0  0  0
 48 49  1  0  0  0  0
 49 50  3  0  0  0  0
 23 51  1  0  0  0  0
 50 51  1  0  0  0  0
 23 52  1  0  0  0  0
 23 53  1  0  0  0  0
 51 54  1  0  0  0  0
 51 55  1  0  0  0  0
 20 56  1  0  0  0  0
 45 57  1  0  0  0  0
 56 57  1  0  0  0  0
 17 58  1  0  0  0  0
 38 59  1  0  0  0  0
 18 60  1  0  0  0  0
 59 60  1  0  0  0  0
 26 61  1  0  0  0  0
 60 61  1  0  0  0  0
 26 62  1  0  0  0  0
 18 63  1  0  0  0  0
 62 63  1  0  0  0  0
 11 64  1  0  0  0  0
 64 65  1  0  0  0  0
 36 66  1  0  0  0  0
 65 66  1  0  0  0  0
 29 67  4  0  0  0  0
  5 68  1  0  0  0  0
 67 68  4  0  0  0  0
 68 69  4  0  0  0  0
 69 70  2  0  0  0  0
 26 71  1  0  0  0  0
 70 71  4  0  0  0  0
 67 72  4  0  0  0  0
 71 72  4  0  0  0  0
 45 73  1  0  0  0  0
  1 74  1  0  0  0  0
  1 75  1  0  0  0  0
  1 76  1  0  0  0  0
  4 77  1  0  0  0  0
  7 78  1  0  0  0  0
  7 79  1  0  0  0  0
  7 80  1  0  0  0  0
 13 81  1  0  0  0  0
 16 82  1  0  0  0  0
 19 83  1  0  0  0  0
 27 84  1  0  0  0  0
 27 85  1  0  0  0  0
 28 86  1  0  0  0  0
 28 87  1  0  0  0  0
 28 88  1  0  0  0  0
 30 89  1  0  0  0  0
 30 90  1  0  0  0  0
 32 91  1  0  0  0  0
 32 92  1  0  0  0  0
 32 93  1  0  0  0  0
 33 94  1  0  0  0  0
 33 95  1  0  0  0  0
 33 96  1  0  0  0  0
 34 97  1  0  0  0  0
 34 98  1  0  0  0  0
 36 99  1  0  0  0  0
  8100  1  0  0  0  0
 38101  1  0  0  0  0
 14102  1  0  0  0  0
 40103  1  0  0  0  0
 41104  1  0  0  0  0
 42105  1  0  0  0  0
 42106  1  0  0  0  0
 42107  1  0  0  0  0
 43108  1  0  0  0  0
 43109  1  0  0  0  0
 43110  1  0  0  0  0
 46111  1  0  0  0  0
 46112  1  0  0  0  0
 47113  1  0  0  0  0
 47114  1  0  0  0  0
 52115  1  0  0  0  0
 52116  1  0  0  0  0
 52117  1  0  0  0  0
 53118  1  0  0  0  0
 53119  1  0  0  0  0
 53120  1  0  0  0  0
 54121  1  0  0  0  0
 54122  1  0  0  0  0
 54123  1  0  0  0  0
 55124  1  0  0  0  0
 55125  1  0  0  0  0
 55126  1  0  0  0  0
 56127  1  0  0  0  0
 56128  1  0  0  0  0
 57129  1  0  0  0  0
 57130  1  0  0  0  0
 58131  1  0  0  0  0
 58132  1  0  0  0  0
 58133  1  0  0  0  0
 59134  1  0  0  0  0
 59135  1  0  0  0  0
 60136  1  0  0  0  0
 61137  1  0  0  0  0
 61138  1  0  0  0  0
 62139  1  0  0  0  0
 62140  1  0  0  0  0
 63141  1  0  0  0  0
 63142  1  0  0  0  0
 64143  1  0  0  0  0
 64144  1  0  0  0  0
 65145  1  0  0  0  0
 65146  1  0  0  0  0
 66147  1  0  0  0  0
 66148  1  0  0  0  0
 69149  1  0  0  0  0
 70150  1  0  0  0  0
 72151  1  0  0  0  0
M  END
