 xtb: 6.7.1 (edcfbbe)
          09282517213D

151157  0     0  0            999 V2000
    8.7366   16.3519   20.7189 C   0  0  0  0  0  0  0  0  0  0  0  0
    9.4261   14.2006   22.4060 N   0  0  0  0  0  0  0  0  0  0  0  0
    9.7710   14.4875   19.4888 O   0  0  0  0  0  0  0  0  0  0  0  0
    9.9844   15.5073   20.4640 C   0  0  0  0  0  0  0  0  0  0  0  0
   13.2793   14.8136   20.2182 N   0  0  0  0  0  0  0  0  0  0  0  0
   15.0503   19.6724   22.8131 O   0  0  0  0  0  0  0  0  0  0  0  0
    9.5113   14.9605   18.1838 C   0  0  0  0  0  0  0  0  0  0  0  0
   18.1970   21.2767   22.2416 N   0  0  0  0  0  0  0  0  0  0  0  0
   25.2176   15.6604   13.1982 O   0  0  0  0  0  0  0  0  0  0  0  0
   10.4049   14.7899   21.7323 C   0  0  0  0  0  0  0  0  0  0  0  0
   19.4357   21.3531   22.8870 N   0  0  0  0  0  0  0  0  0  0  0  0
   24.4614   19.3895   18.1521 O   0  0  0  0  0  0  0  0  0  0  0  0
    9.7020   13.5575   23.5258 C   0  0  0  0  0  0  0  0  0  0  0  0
   21.7364   20.8372   20.1117 N   0  0  0  0  0  0  0  0  0  0  0  0
   21.5814   23.0445   19.6865 O   0  0  0  0  0  0  0  0  0  0  0  0
   10.9783   13.4901   24.0645 C   0  0  0  0  0  0  0  0  0  0  0  0
   23.0642   21.0485   17.5620 N   0  0  0  0  0  0  0  0  0  0  0  0
   19.1858   20.2809   18.2523 O   0  0  0  0  0  0  0  0  0  0  0  0
   12.0069   14.0974   23.3672 C   0  0  0  0  0  0  0  0  0  0  0  0
   23.9320   17.4211   13.8292 N   0  0  0  0  0  0  0  0  0  0  0  0
   21.6691   21.0846   22.7981 O   0  0  0  0  0  0  0  0  0  0  0  0
   11.7382   14.7471   22.1622 C   0  0  0  0  0  0  0  0  0  0  0  0
   24.9817   18.4386    8.4879 N   0  0  0  0  0  0  0  0  0  0  0  0
   15.5948   21.3872   21.4731 O   0  0  0  0  0  0  0  0  0  0  0  0
   12.8574   15.3403   21.4195 C   0  0  0  0  0  0  0  0  0  0  0  0
   17.4166   18.3231   19.2038 N   0  0  0  0  0  0  0  0  0  0  0  0
   12.8205   13.5707   19.6513 C   0  0  0  0  0  0  0  0  0  0  0  0
   13.4754   12.3717   20.3364 C   0  0  0  0  0  0  0  0  0  0  0  0
   13.6585   16.3951   21.7929 C   0  0  0  0  0  0  0  0  0  0  0  0
   13.5735   17.1845   23.0602 C   0  0  0  0  0  0  0  0  0  0  0  0
   12.8883   18.5678   22.9679 C   0  0  0  0  0  0  0  0  0  0  0  0
   12.6706   19.0979   24.3882 C   0  0  0  0  0  0  0  0  0  0  0  0
   11.5443   18.4493   22.2514 C   0  0  0  0  0  0  0  0  0  0  0  0
   13.7570   19.5626   22.1920 C   0  0  0  0  0  0  0  0  0  0  0  0
   15.8753   20.5928   22.3441 C   0  0  0  0  0  0  0  0  0  0  0  0
   17.2280   20.5301   23.0373 C   0  0  0  0  0  0  0  0  0  0  0  0
   20.5754   21.0568   22.2409 C   0  0  0  0  0  0  0  0  0  0  0  0
   20.4428   20.7423   20.7478 C   0  0  0  0  0  0  0  0  0  0  0  0
   22.1847   21.9838   19.5936 C   0  0  0  0  0  0  0  0  0  0  0  0
   23.4571   21.8096   18.7509 C   0  0  0  0  0  0  0  0  0  0  0  0
   24.1252   23.1503   18.4096 C   0  0  0  0  0  0  0  0  0  0  0  0
   25.2678   22.9543   17.4156 C   0  0  0  0  0  0  0  0  0  0  0  0
   24.6547   23.7764   19.6988 C   0  0  0  0  0  0  0  0  0  0  0  0
   23.6287   19.8502   17.3718 C   0  0  0  0  0  0  0  0  0  0  0  0
   23.2532   19.0130   16.1302 C   0  0  0  0  0  0  0  0  0  0  0  0
   23.8251   17.5987   16.2625 C   0  0  0  0  0  0  0  0  0  0  0  0
   23.4633   16.7703   15.0322 C   0  0  0  0  0  0  0  0  0  0  0  0
   24.7871   16.8003   12.9978 C   0  0  0  0  0  0  0  0  0  0  0  0
   25.1687   17.5392   11.8210 C   0  0  0  0  0  0  0  0  0  0  0  0
   25.5890   18.0169   10.7968 C   0  0  0  0  0  0  0  0  0  0  0  0
   25.9905   18.6519    9.5429 C   0  0  0  0  0  0  0  0  0  0  0  0
   23.6212   18.7166    8.9164 C   0  0  0  0  0  0  0  0  0  0  0  0
   25.0281   17.1449    7.8314 C   0  0  0  0  0  0  0  0  0  0  0  0
   26.1550   20.1669    9.7641 C   0  0  0  0  0  0  0  0  0  0  0  0
   27.3589   18.0806    9.1449 C   0  0  0  0  0  0  0  0  0  0  0  0
   23.4207   18.7558   13.6346 C   0  0  0  0  0  0  0  0  0  0  0  0
   23.7599   19.6487   14.8329 C   0  0  0  0  0  0  0  0  0  0  0  0
   22.0673   21.6816   16.7215 C   0  0  0  0  0  0  0  0  0  0  0  0
   19.8191   19.3776   20.4610 C   0  0  0  0  0  0  0  0  0  0  0  0
   19.6589   19.1385   18.9468 C   0  0  0  0  0  0  0  0  0  0  0  0
   18.7200   17.9475   18.7013 C   0  0  0  0  0  0  0  0  0  0  0  0
   16.8956   19.4420   18.4389 C   0  0  0  0  0  0  0  0  0  0  0  0
   17.8485   20.6255   18.5808 C   0  0  0  0  0  0  0  0  0  0  0  0
   19.4427   21.8836   24.2424 C   0  0  0  0  0  0  0  0  0  0  0  0
   18.4851   21.0824   25.1196 C   0  0  0  0  0  0  0  0  0  0  0  0
   17.1000   21.0667   24.4765 C   0  0  0  0  0  0  0  0  0  0  0  0
   14.6325   16.5331   20.7603 C   0  0  0  0  0  0  0  0  0  0  0  0
   14.3764   15.5149   19.8059 C   0  0  0  0  0  0  0  0  0  0  0  0
   15.1787   15.3673   18.6802 C   0  0  0  0  0  0  0  0  0  0  0  0
   16.2022   16.2699   18.4798 C   0  0  0  0  0  0  0  0  0  0  0  0
   16.4489   17.2989   19.3984 C   0  0  0  0  0  0  0  0  0  0  0  0
   15.6927   17.4081   20.5482 C   0  0  0  0  0  0  0  0  0  0  0  0
   21.8584   18.8842   16.0660 F   0  0  0  0  0  0  0  0  0  0  0  0
    7.9068   15.6934   20.9602 H   0  0  0  0  0  0  0  0  0  0  0  0
    8.9159   17.0192   21.5562 H   0  0  0  0  0  0  0  0  0  0  0  0
    8.4889   16.9485   19.8456 H   0  0  0  0  0  0  0  0  0  0  0  0
   10.8087   16.1542   20.1164 H   0  0  0  0  0  0  0  0  0  0  0  0
   10.2650   15.6948   17.8778 H   0  0  0  0  0  0  0  0  0  0  0  0
    9.5670   14.0879   17.5365 H   0  0  0  0  0  0  0  0  0  0  0  0
    8.5154   15.4046   18.1074 H   0  0  0  0  0  0  0  0  0  0  0  0
    8.8569   13.0851   24.0081 H   0  0  0  0  0  0  0  0  0  0  0  0
   11.1620   12.9729   24.9922 H   0  0  0  0  0  0  0  0  0  0  0  0
   13.0238   14.0613   23.7319 H   0  0  0  0  0  0  0  0  0  0  0  0
   11.7332   13.5092   19.7494 H   0  0  0  0  0  0  0  0  0  0  0  0
   13.0689   13.5711   18.5867 H   0  0  0  0  0  0  0  0  0  0  0  0
   14.5573   12.4256   20.2422 H   0  0  0  0  0  0  0  0  0  0  0  0
   13.2181   12.3547   21.3926 H   0  0  0  0  0  0  0  0  0  0  0  0
   13.1263   11.4515   19.8800 H   0  0  0  0  0  0  0  0  0  0  0  0
   13.0174   16.5962   23.7931 H   0  0  0  0  0  0  0  0  0  0  0  0
   14.5852   17.3369   23.4419 H   0  0  0  0  0  0  0  0  0  0  0  0
   12.0107   18.4338   24.9405 H   0  0  0  0  0  0  0  0  0  0  0  0
   13.6179   19.1667   24.9167 H   0  0  0  0  0  0  0  0  0  0  0  0
   12.2179   20.0858   24.3593 H   0  0  0  0  0  0  0  0  0  0  0  0
   11.0268   19.4051   22.2426 H   0  0  0  0  0  0  0  0  0  0  0  0
   11.6859   18.1237   21.2243 H   0  0  0  0  0  0  0  0  0  0  0  0
   10.9210   17.7193   22.7609 H   0  0  0  0  0  0  0  0  0  0  0  0
   13.2908   20.5555   22.1698 H   0  0  0  0  0  0  0  0  0  0  0  0
   13.9016   19.2338   21.1569 H   0  0  0  0  0  0  0  0  0  0  0  0
   17.5560   19.4854   23.0750 H   0  0  0  0  0  0  0  0  0  0  0  0
   17.8283   22.2123   22.0525 H   0  0  0  0  0  0  0  0  0  0  0  0
   19.8317   21.5379   20.3074 H   0  0  0  0  0  0  0  0  0  0  0  0
   22.3262   20.0192   20.1102 H   0  0  0  0  0  0  0  0  0  0  0  0
   24.1736   21.1858   19.2959 H   0  0  0  0  0  0  0  0  0  0  0  0
   23.3684   23.8167   17.9854 H   0  0  0  0  0  0  0  0  0  0  0  0
   24.9090   22.5739   16.4630 H   0  0  0  0  0  0  0  0  0  0  0  0
   25.7685   23.9029   17.2404 H   0  0  0  0  0  0  0  0  0  0  0  0
   25.9909   22.2450   17.8126 H   0  0  0  0  0  0  0  0  0  0  0  0
   25.1015   24.7440   19.4889 H   0  0  0  0  0  0  0  0  0  0  0  0
   23.8472   23.9169   20.4125 H   0  0  0  0  0  0  0  0  0  0  0  0
   25.4086   23.1350   20.1485 H   0  0  0  0  0  0  0  0  0  0  0  0
   24.9064   17.6729   16.3750 H   0  0  0  0  0  0  0  0  0  0  0  0
   23.4237   17.1272   17.1598 H   0  0  0  0  0  0  0  0  0  0  0  0
   22.3755   16.6604   14.9739 H   0  0  0  0  0  0  0  0  0  0  0  0
   23.9233   15.7827   15.0835 H   0  0  0  0  0  0  0  0  0  0  0  0
   23.2135   17.9292    9.5697 H   0  0  0  0  0  0  0  0  0  0  0  0
   23.5724   19.6644    9.4441 H   0  0  0  0  0  0  0  0  0  0  0  0
   22.9944   18.7883    8.0281 H   0  0  0  0  0  0  0  0  0  0  0  0
   25.9743   17.0151    7.3133 H   0  0  0  0  0  0  0  0  0  0  0  0
   24.8742   16.3030    8.5249 H   0  0  0  0  0  0  0  0  0  0  0  0
   24.2345   17.1223    7.0863 H   0  0  0  0  0  0  0  0  0  0  0  0
   26.4126   20.6276    8.8159 H   0  0  0  0  0  0  0  0  0  0  0  0
   25.2441   20.6200   10.1401 H   0  0  0  0  0  0  0  0  0  0  0  0
   26.9489   20.3525   10.4822 H   0  0  0  0  0  0  0  0  0  0  0  0
   28.0965   18.3798    9.8865 H   0  0  0  0  0  0  0  0  0  0  0  0
   27.3418   16.9946    9.1111 H   0  0  0  0  0  0  0  0  0  0  0  0
   27.6526   18.4744    8.1755 H   0  0  0  0  0  0  0  0  0  0  0  0
   23.8517   19.1734   12.7253 H   0  0  0  0  0  0  0  0  0  0  0  0
   22.3313   18.7044   13.5259 H   0  0  0  0  0  0  0  0  0  0  0  0
   23.3050   20.6240   14.6797 H   0  0  0  0  0  0  0  0  0  0  0  0
   24.8397   19.7696   14.9223 H   0  0  0  0  0  0  0  0  0  0  0  0
   22.5393   22.3221   15.9755 H   0  0  0  0  0  0  0  0  0  0  0  0
   21.4283   20.9512   16.2389 H   0  0  0  0  0  0  0  0  0  0  0  0
   21.4284   22.3021   17.3474 H   0  0  0  0  0  0  0  0  0  0  0  0
   20.4492   18.5905   20.8748 H   0  0  0  0  0  0  0  0  0  0  0  0
   18.8357   19.3296   20.9241 H   0  0  0  0  0  0  0  0  0  0  0  0
   20.6338   18.9372   18.4885 H   0  0  0  0  0  0  0  0  0  0  0  0
   19.0739   17.0707   19.2395 H   0  0  0  0  0  0  0  0  0  0  0  0
   18.7152   17.7299   17.6207 H   0  0  0  0  0  0  0  0  0  0  0  0
   16.7816   19.1758   17.3738 H   0  0  0  0  0  0  0  0  0  0  0  0
   15.9205   19.7263   18.8366 H   0  0  0  0  0  0  0  0  0  0  0  0
   17.7853   21.0075   19.6059 H   0  0  0  0  0  0  0  0  0  0  0  0
   17.5776   21.4191   17.8844 H   0  0  0  0  0  0  0  0  0  0  0  0
   20.4692   21.8289   24.6035 H   0  0  0  0  0  0  0  0  0  0  0  0
   19.1325   22.9346   24.2050 H   0  0  0  0  0  0  0  0  0  0  0  0
   18.4387   21.5350   26.1096 H   0  0  0  0  0  0  0  0  0  0  0  0
   18.8563   20.0618   25.2207 H   0  0  0  0  0  0  0  0  0  0  0  0
   16.6880   22.0789   24.4470 H   0  0  0  0  0  0  0  0  0  0  0  0
   16.4199   20.4307   25.0424 H   0  0  0  0  0  0  0  0  0  0  0  0
   15.0046   14.5790   17.9633 H   0  0  0  0  0  0  0  0  0  0  0  0
   16.8187   16.1845   17.5960 H   0  0  0  0  0  0  0  0  0  0  0  0
   15.9421   18.1801   21.2543 H   0  0  0  0  0  0  0  0  0  0  0  0
  1  4  1  0  0  0  0
  3  4  1  0  0  0  0
  3  7  1  0  0  0  0
  2 10  4  0  0  0  0
  4 10  1  0  0  0  0
  8 11  1  0  0  0  0
  2 13  4  0  0  0  0
 13 16  4  0  0  0  0
 16 19  4  0  0  0  0
 10 22  4  0  0  0  0
 19 22  4  0  0  0  0
  5 25  1  0  0  0  0
 22 25  1  0  0  0  0
  5 27  1  0  0  0  0
 27 28  1  0  0  0  0
 25 29  2  0  0  0  0
 29 30  1  0  0  0  0
 30 31  1  0  0  0  0
 31 32  1  0  0  0  0
 31 33  1  0  0  0  0
  6 34  1  0  0  0  0
 31 34  1  0  0  0  0
  6 35  1  0  0  0  0
 24 35  2  0  0  0  0
  8 36  1  0  0  0  0
 35 36  1  0  0  0  0
 11 37  4  0  0  0  0
 21 37  2  0  0  0  0
 14 38  1  0  0  0  0
 37 38  1  0  0  0  0
 14 39  4  0  0  0  0
 15 39  2  0  0  0  0
 17 40  1  0  0  0  0
 39 40  1  0  0  0  0
 40 41  1  0  0  0  0
 41 42  1  0  0  0  0
 41 43  1  0  0  0  0
 12 44  2  0  0  0  0
 17 44  4  0  0  0  0
 44 45  1  0  0  0  0
 45 46  1  0  0  0  0
 20 47  1  0  0  0  0
 46 47  1  0  0  0  0
  9 48  2  0  0  0  0
 20 48  4  0  0  0  0
 48 49  1  0  0  0  0
 49 50  3  0  0  0  0
 23 51  1  0  0  0  0
 50 51  1  0  0  0  0
 23 52  1  0  0  0  0
 23 53  1  0  0  0  0
 51 54  1  0  0  0  0
 51 55  1  0  0  0  0
 20 56  1  0  0  0  0
 45 57  1  0  0  0  0
 56 57  1  0  0  0  0
 17 58  1  0  0  0  0
 38 59  1  0  0  0  0
 18 60  1  0  0  0  0
 59 60  1  0  0  0  0
 26 61  1  0  0  0  0
 60 61  1  0  0  0  0
 26 62  1  0  0  0  0
 18 63  1  0  0  0  0
 62 63  1  0  0  0  0
 11 64  1  0  0  0  0
 64 65  1  0  0  0  0
 36 66  1  0  0  0  0
 65 66  1  0  0  0  0
 29 67  4  0  0  0  0
  5 68  1  0  0  0  0
 67 68  4  0  0  0  0
 68 69  4  0  0  0  0
 69 70  4  0  0  0  0
 26 71  1  0  0  0  0
 70 71  4  0  0  0  0
 67 72  4  0  0  0  0
 71 72  4  0  0  0  0
 45 73  1  0  0  0  0
  1 74  1  0  0  0  0
  1 75  1  0  0  0  0
  1 76  1  0  0  0  0
  4 77  1  0  0  0  0
  7 78  1  0  0  0  0
  7 79  1  0  0  0  0
  7 80  1  0  0  0  0
 13 81  1  0  0  0  0
 16 82  1  0  0  0  0
 19 83  1  0  0  0  0
 27 84  1  0  0  0  0
 27 85  1  0  0  0  0
 28 86  1  0  0  0  0
 28 87  1  0  0  0  0
 28 88  1  0  0  0  0
 30 89  1  0  0  0  0
 30 90  1  0  0  0  0
 32 91  1  0  0  0  0
 32 92  1  0  0  0  0
 32 93  1  0  0  0  0
 33 94  1  0  0  0  0
 33 95  1  0  0  0  0
 33 96  1  0  0  0  0
 34 97  1  0  0  0  0
 34 98  1  0  0  0  0
 36 99  1  0  0  0  0
  8100  1  0  0  0  0
 38101  1  0  0  0  0
 14102  1  0  0  0  0
 40103  1  0  0  0  0
 41104  1  0  0  0  0
 42105  1  0  0  0  0
 42106  1  0  0  0  0
 42107  1  0  0  0  0
 43108  1  0  0  0  0
 43109  1  0  0  0  0
 43110  1  0  0  0  0
 46111  1  0  0  0  0
 46112  1  0  0  0  0
 47113  1  0  0  0  0
 47114  1  0  0  0  0
 52115  1  0  0  0  0
 52116  1  0  0  0  0
 52117  1  0  0  0  0
 53118  1  0  0  0  0
 53119  1  0  0  0  0
 53120  1  0  0  0  0
 54121  1  0  0  0  0
 54122  1  0  0  0  0
 54123  1  0  0  0  0
 55124  1  0  0  0  0
 55125  1  0  0  0  0
 55126  1  0  0  0  0
 56127  1  0  0  0  0
 56128  1  0  0  0  0
 57129  1  0  0  0  0
 57130  1  0  0  0  0
 58131  1  0  0  0  0
 58132  1  0  0  0  0
 58133  1  0  0  0  0
 59134  1  0  0  0  0
 59135  1  0  0  0  0
 60136  1  0  0  0  0
 61137  1  0  0  0  0
 61138  1  0  0  0  0
 62139  1  0  0  0  0
 62140  1  0  0  0  0
 63141  1  0  0  0  0
 63142  1  0  0  0  0
 64143  1  0  0  0  0
 64144  1  0  0  0  0
 65145  1  0  0  0  0
 65146  1  0  0  0  0
 66147  1  0  0  0  0
 66148  1  0  0  0  0
 69149  1  0  0  0  0
 70150  1  0  0  0  0
 72151  1  0  0  0  0
M  END
