 xtb: 6.7.1 (edcfbbe)
          09282522563D

151157  0     0  0            999 V2000
   -8.6709   -2.9976    3.5318 C   0  0  0  0  0  0  0  0  0  0  0  0
   -7.6356   -4.6934    5.5115 N   0  0  0  0  0  0  0  0  0  0  0  0
   -7.3789   -4.7089    2.3208 O   0  0  0  0  0  0  0  0  0  0  0  0
   -7.3256   -3.6927    3.3222 C   0  0  0  0  0  0  0  0  0  0  0  0
   -4.1575   -4.4585    2.7587 N   0  0  0  0  0  0  0  0  0  0  0  0
   -2.4145    0.9207    5.4442 O   0  0  0  0  0  0  0  0  0  0  0  0
   -8.2496   -5.7947    2.5686 C   0  0  0  0  0  0  0  0  0  0  0  0
    0.2728    2.7842    3.9837 N   0  0  0  0  0  0  0  0  0  0  0  0
    2.9716   -2.0755   -5.9143 O   0  0  0  0  0  0  0  0  0  0  0  0
   -6.7638   -4.2166    4.6339 C   0  0  0  0  0  0  0  0  0  0  0  0
    1.6371    2.5397    3.7958 N   0  0  0  0  0  0  0  0  0  0  0  0
    3.9154    2.6866   -2.8647 O   0  0  0  0  0  0  0  0  0  0  0  0
   -7.2027   -5.1480    6.6755 C   0  0  0  0  0  0  0  0  0  0  0  0
    2.0656    3.5558    0.3630 N   0  0  0  0  0  0  0  0  0  0  0  0
    0.5638    5.0454   -0.4080 O   0  0  0  0  0  0  0  0  0  0  0  0
   -5.8682   -5.1308    7.0462 C   0  0  0  0  0  0  0  0  0  0  0  0
    2.0826    3.9939   -2.8608 N   0  0  0  0  0  0  0  0  0  0  0  0
    0.9031    0.8341   -1.0629 O   0  0  0  0  0  0  0  0  0  0  0  0
   -4.9470   -4.6479    6.1321 C   0  0  0  0  0  0  0  0  0  0  0  0
    2.8453    0.1281   -6.4495 N   0  0  0  0  0  0  0  0  0  0  0  0
    3.3479    2.3335    2.3446 O   0  0  0  0  0  0  0  0  0  0  0  0
   -5.3840   -4.1958    4.8899 C   0  0  0  0  0  0  0  0  0  0  0  0
    7.7882   -0.6364   -8.6335 N   0  0  0  0  0  0  0  0  0  0  0  0
   -2.3817    3.0334    4.6710 O   0  0  0  0  0  0  0  0  0  0  0  0
   -4.4198   -3.7218    3.8909 C   0  0  0  0  0  0  0  0  0  0  0  0
   -0.6090   -1.0989    0.1616 N   0  0  0  0  0  0  0  0  0  0  0  0
   -4.5128   -5.8398    2.5539 C   0  0  0  0  0  0  0  0  0  0  0  0
   -3.3932   -6.7679    3.0263 C   0  0  0  0  0  0  0  0  0  0  0  0
   -3.6890   -2.5569    3.8862 C   0  0  0  0  0  0  0  0  0  0  0  0
   -3.6118   -1.5248    4.9631 C   0  0  0  0  0  0  0  0  0  0  0  0
   -4.4502   -0.2351    4.7652 C   0  0  0  0  0  0  0  0  0  0  0  0
   -5.8898   -0.4729    5.2213 C   0  0  0  0  0  0  0  0  0  0  0  0
   -4.4583    0.2510    3.3158 C   0  0  0  0  0  0  0  0  0  0  0  0
   -3.8310    0.8655    5.6542 C   0  0  0  0  0  0  0  0  0  0  0  0
   -1.8373    1.9829    4.9185 C   0  0  0  0  0  0  0  0  0  0  0  0
   -0.3633    1.6818    4.6870 C   0  0  0  0  0  0  0  0  0  0  0  0
    2.1739    2.6104    2.5696 C   0  0  0  0  0  0  0  0  0  0  0  0
    1.2462    3.1007    1.4641 C   0  0  0  0  0  0  0  0  0  0  0  0
    1.6393    4.4628   -0.5178 C   0  0  0  0  0  0  0  0  0  0  0  0
    2.5910    4.7087   -1.6912 C   0  0  0  0  0  0  0  0  0  0  0  0
    2.7733    6.2103   -1.9744 C   0  0  0  0  0  0  0  0  0  0  0  0
    3.6547    6.4166   -3.2032 C   0  0  0  0  0  0  0  0  0  0  0  0
    3.4008    6.8751   -0.7507 C   0  0  0  0  0  0  0  0  0  0  0  0
    2.8737    3.0630   -3.4052 C   0  0  0  0  0  0  0  0  0  0  0  0
    2.5071    2.4159   -4.7504 C   0  0  0  0  0  0  0  0  0  0  0  0
    1.7482    1.1087   -4.5053 C   0  0  0  0  0  0  0  0  0  0  0  0
    1.5666    0.3166   -5.8045 C   0  0  0  0  0  0  0  0  0  0  0  0
    3.4989   -1.0481   -6.3407 C   0  0  0  0  0  0  0  0  0  0  0  0
    4.8725   -1.0122   -6.7697 C   0  0  0  0  0  0  0  0  0  0  0  0
    6.0496   -1.0147   -7.0231 C   0  0  0  0  0  0  0  0  0  0  0  0
    7.4913   -0.9137   -7.2206 C   0  0  0  0  0  0  0  0  0  0  0  0
    9.1817   -0.3380   -8.8970 C   0  0  0  0  0  0  0  0  0  0  0  0
    6.9289    0.3540   -9.2496 C   0  0  0  0  0  0  0  0  0  0  0  0
    7.9700    0.1824   -6.2418 C   0  0  0  0  0  0  0  0  0  0  0  0
    8.0951   -2.2714   -6.8245 C   0  0  0  0  0  0  0  0  0  0  0  0
    3.4851    1.3709   -6.8112 C   0  0  0  0  0  0  0  0  0  0  0  0
    3.7913    2.1794   -5.5515 C   0  0  0  0  0  0  0  0  0  0  0  0
    0.7788    4.3911   -3.3514 C   0  0  0  0  0  0  0  0  0  0  0  0
    0.2657    2.0112    0.9933 C   0  0  0  0  0  0  0  0  0  0  0  0
    0.9829    0.8021    0.3509 C   0  0  0  0  0  0  0  0  0  0  0  0
    0.5214   -0.5605    0.9023 C   0  0  0  0  0  0  0  0  0  0  0  0
   -1.3365   -0.0944   -0.5867 C   0  0  0  0  0  0  0  0  0  0  0  0
   -0.3852    0.5435   -1.5959 C   0  0  0  0  0  0  0  0  0  0  0  0
    2.4320    2.1923    4.9663 C   0  0  0  0  0  0  0  0  0  0  0  0
    1.7987    1.0151    5.7047 C   0  0  0  0  0  0  0  0  0  0  0  0
    0.3395    1.3423    6.0128 C   0  0  0  0  0  0  0  0  0  0  0  0
   -2.9272   -2.5715    2.6788 C   0  0  0  0  0  0  0  0  0  0  0  0
   -3.2481   -3.7751    2.0047 C   0  0  0  0  0  0  0  0  0  0  0  0
   -2.6849   -4.0858    0.7715 C   0  0  0  0  0  0  0  0  0  0  0  0
   -1.8147   -3.1771    0.2158 C   0  0  0  0  0  0  0  0  0  0  0  0
   -1.4769   -1.9837    0.8727 C   0  0  0  0  0  0  0  0  0  0  0  0
   -2.0182   -1.6829    2.1053 C   0  0  0  0  0  0  0  0  0  0  0  0
    1.7071    3.2616   -5.5295 F   0  0  0  0  0  0  0  0  0  0  0  0
   -8.5231   -2.0834    4.1002 H   0  0  0  0  0  0  0  0  0  0  0  0
   -9.1022   -2.7508    2.5648 H   0  0  0  0  0  0  0  0  0  0  0  0
   -9.3460   -3.6431    4.0855 H   0  0  0  0  0  0  0  0  0  0  0  0
   -6.6050   -2.9833    2.8935 H   0  0  0  0  0  0  0  0  0  0  0  0
   -7.9788   -6.3339    3.4876 H   0  0  0  0  0  0  0  0  0  0  0  0
   -9.2936   -5.4710    2.6413 H   0  0  0  0  0  0  0  0  0  0  0  0
   -8.1299   -6.4548    1.7076 H   0  0  0  0  0  0  0  0  0  0  0  0
   -7.9692   -5.5342    7.3338 H   0  0  0  0  0  0  0  0  0  0  0  0
   -5.5586   -5.4931    8.0131 H   0  0  0  0  0  0  0  0  0  0  0  0
   -3.8921   -4.6296    6.3643 H   0  0  0  0  0  0  0  0  0  0  0  0
   -5.4295   -6.0501    3.1056 H   0  0  0  0  0  0  0  0  0  0  0  0
   -4.7142   -5.9908    1.4907 H   0  0  0  0  0  0  0  0  0  0  0  0
   -3.2022   -6.6170    4.0880 H   0  0  0  0  0  0  0  0  0  0  0  0
   -3.6765   -7.8047    2.8649 H   0  0  0  0  0  0  0  0  0  0  0  0
   -2.4768   -6.5614    2.4793 H   0  0  0  0  0  0  0  0  0  0  0  0
   -3.9177   -1.9755    5.9091 H   0  0  0  0  0  0  0  0  0  0  0  0
   -2.5634   -1.2361    5.0521 H   0  0  0  0  0  0  0  0  0  0  0  0
   -6.4778    0.4364    5.1231 H   0  0  0  0  0  0  0  0  0  0  0  0
   -6.3413   -1.2472    4.6077 H   0  0  0  0  0  0  0  0  0  0  0  0
   -5.9223   -0.7948    6.2594 H   0  0  0  0  0  0  0  0  0  0  0  0
   -3.4705    0.5815    3.0050 H   0  0  0  0  0  0  0  0  0  0  0  0
   -4.7802   -0.5406    2.6447 H   0  0  0  0  0  0  0  0  0  0  0  0
   -5.1385    1.0935    3.2105 H   0  0  0  0  0  0  0  0  0  0  0  0
   -3.9708    0.6274    6.7111 H   0  0  0  0  0  0  0  0  0  0  0  0
   -4.2665    1.8432    5.4322 H   0  0  0  0  0  0  0  0  0  0  0  0
   -0.3088    0.8002    4.0343 H   0  0  0  0  0  0  0  0  0  0  0  0
    0.1168    3.6589    4.4842 H   0  0  0  0  0  0  0  0  0  0  0  0
    0.6575    3.9508    1.8240 H   0  0  0  0  0  0  0  0  0  0  0  0
    2.9509    3.0786    0.2393 H   0  0  0  0  0  0  0  0  0  0  0  0
    3.5670    4.2669   -1.4671 H   0  0  0  0  0  0  0  0  0  0  0  0
    1.7878    6.6532   -2.1488 H   0  0  0  0  0  0  0  0  0  0  0  0
    3.2064    5.9697   -4.0907 H   0  0  0  0  0  0  0  0  0  0  0  0
    3.7940    7.4811   -3.3906 H   0  0  0  0  0  0  0  0  0  0  0  0
    4.6318    5.9596   -3.0439 H   0  0  0  0  0  0  0  0  0  0  0  0
    2.7653    6.7457    0.1223 H   0  0  0  0  0  0  0  0  0  0  0  0
    4.3751    6.4395   -0.5394 H   0  0  0  0  0  0  0  0  0  0  0  0
    3.5269    7.9391   -0.9296 H   0  0  0  0  0  0  0  0  0  0  0  0
    2.3179    0.5247   -3.7805 H   0  0  0  0  0  0  0  0  0  0  0  0
    0.7738    1.3289   -4.0712 H   0  0  0  0  0  0  0  0  0  0  0  0
    0.9080    0.8631   -6.4851 H   0  0  0  0  0  0  0  0  0  0  0  0
    1.1422   -0.6654   -5.5901 H   0  0  0  0  0  0  0  0  0  0  0  0
    9.4952    0.6451   -8.5140 H   0  0  0  0  0  0  0  0  0  0  0  0
    9.8160   -1.1106   -8.4684 H   0  0  0  0  0  0  0  0  0  0  0  0
    9.3260   -0.3434   -9.9775 H   0  0  0  0  0  0  0  0  0  0  0  0
    7.0371    1.3603   -8.8164 H   0  0  0  0  0  0  0  0  0  0  0  0
    7.1820    0.4109  -10.3072 H   0  0  0  0  0  0  0  0  0  0  0  0
    5.8909    0.0398   -9.1607 H   0  0  0  0  0  0  0  0  0  0  0  0
    9.0544    0.2406   -6.2425 H   0  0  0  0  0  0  0  0  0  0  0  0
    7.5570    1.1504   -6.5179 H   0  0  0  0  0  0  0  0  0  0  0  0
    7.6346   -0.0558   -5.2364 H   0  0  0  0  0  0  0  0  0  0  0  0
    9.1706   -2.1977   -6.6962 H   0  0  0  0  0  0  0  0  0  0  0  0
    7.6580   -2.6024   -5.8859 H   0  0  0  0  0  0  0  0  0  0  0  0
    7.8739   -3.0055   -7.5937 H   0  0  0  0  0  0  0  0  0  0  0  0
    4.4026    1.1679   -7.3615 H   0  0  0  0  0  0  0  0  0  0  0  0
    2.7981    1.9337   -7.4497 H   0  0  0  0  0  0  0  0  0  0  0  0
    4.2214    3.1453   -5.8187 H   0  0  0  0  0  0  0  0  0  0  0  0
    4.4973    1.6472   -4.9145 H   0  0  0  0  0  0  0  0  0  0  0  0
    0.2122    3.5247   -3.6742 H   0  0  0  0  0  0  0  0  0  0  0  0
    0.2402    4.8667   -2.5386 H   0  0  0  0  0  0  0  0  0  0  0  0
    0.8581    5.0899   -4.1834 H   0  0  0  0  0  0  0  0  0  0  0  0
   -0.3509    1.7148    1.8389 H   0  0  0  0  0  0  0  0  0  0  0  0
   -0.3786    2.4822    0.2487 H   0  0  0  0  0  0  0  0  0  0  0  0
    2.0576    0.8859    0.5474 H   0  0  0  0  0  0  0  0  0  0  0  0
    0.3157   -0.4534    1.9764 H   0  0  0  0  0  0  0  0  0  0  0  0
    1.3430   -1.2795    0.7955 H   0  0  0  0  0  0  0  0  0  0  0  0
   -2.1453   -0.5886   -1.1278 H   0  0  0  0  0  0  0  0  0  0  0  0
   -1.7879    0.6718    0.0662 H   0  0  0  0  0  0  0  0  0  0  0  0
   -0.8279    1.4683   -1.9923 H   0  0  0  0  0  0  0  0  0  0  0  0
   -0.2131   -0.1538   -2.4207 H   0  0  0  0  0  0  0  0  0  0  0  0
    3.4338    1.9535    4.6104 H   0  0  0  0  0  0  0  0  0  0  0  0
    2.4795    3.0669    5.6239 H   0  0  0  0  0  0  0  0  0  0  0  0
    2.3503    0.8251    6.6237 H   0  0  0  0  0  0  0  0  0  0  0  0
    1.8504    0.1222    5.0787 H   0  0  0  0  0  0  0  0  0  0  0  0
    0.2788    2.2027    6.6825 H   0  0  0  0  0  0  0  0  0  0  0  0
   -0.1598    0.4977    6.4843 H   0  0  0  0  0  0  0  0  0  0  0  0
   -2.9276   -5.0015    0.2550 H   0  0  0  0  0  0  0  0  0  0  0  0
   -1.3666   -3.3635   -0.7474 H   0  0  0  0  0  0  0  0  0  0  0  0
   -1.7633   -0.7661    2.6156 H   0  0  0  0  0  0  0  0  0  0  0  0
  1  4  1  0  0  0  0
  3  4  1  0  0  0  0
  3  7  1  0  0  0  0
  2 10  4  0  0  0  0
  4 10  1  0  0  0  0
  8 11  1  0  0  0  0
  2 13  4  0  0  0  0
 13 16  4  0  0  0  0
 16 19  4  0  0  0  0
 10 22  4  0  0  0  0
 19 22  4  0  0  0  0
  5 25  1  0  0  0  0
 22 25  1  0  0  0  0
  5 27  1  0  0  0  0
 27 28  1  0  0  0  0
 25 29  2  0  0  0  0
 29 30  1  0  0  0  0
 30 31  1  0  0  0  0
 31 32  1  0  0  0  0
 31 33  1  0  0  0  0
  6 34  1  0  0  0  0
 31 34  1  0  0  0  0
  6 35  1  0  0  0  0
 24 35  2  0  0  0  0
  8 36  1  0  0  0  0
 35 36  1  0  0  0  0
 11 37  4  0  0  0  0
 21 37  2  0  0  0  0
 14 38  1  0  0  0  0
 37 38  1  0  0  0  0
 14 39  4  0  0  0  0
 15 39  2  0  0  0  0
 17 40  1  0  0  0  0
 39 40  1  0  0  0  0
 40 41  1  0  0  0  0
 41 42  1  0  0  0  0
 41 43  1  0  0  0  0
 12 44  2  0  0  0  0
 17 44  4  0  0  0  0
 44 45  1  0  0  0  0
 45 46  1  0  0  0  0
 20 47  1  0  0  0  0
 46 47  1  0  0  0  0
  9 48  2  0  0  0  0
 20 48  4  0  0  0  0
 48 49  1  0  0  0  0
 49 50  3  0  0  0  0
 23 51  1  0  0  0  0
 50 51  1  0  0  0  0
 23 52  1  0  0  0  0
 23 53  1  0  0  0  0
 51 54  1  0  0  0  0
 51 55  1  0  0  0  0
 20 56  1  0  0  0  0
 45 57  1  0  0  0  0
 56 57  1  0  0  0  0
 17 58  1  0  0  0  0
 38 59  1  0  0  0  0
 18 60  1  0  0  0  0
 59 60  1  0  0  0  0
 26 61  1  0  0  0  0
 60 61  1  0  0  0  0
 26 62  1  0  0  0  0
 18 63  1  0  0  0  0
 62 63  1  0  0  0  0
 11 64  1  0  0  0  0
 64 65  1  0  0  0  0
 36 66  1  0  0  0  0
 65 66  1  0  0  0  0
 29 67  4  0  0  0  0
  5 68  1  0  0  0  0
 67 68  4  0  0  0  0
 68 69  4  0  0  0  0
 69 70  2  0  0  0  0
 26 71  1  0  0  0  0
 70 71  4  0  0  0  0
 67 72  4  0  0  0  0
 71 72  4  0  0  0  0
 45 73  1  0  0  0  0
  1 74  1  0  0  0  0
  1 75  1  0  0  0  0
  1 76  1  0  0  0  0
  4 77  1  0  0  0  0
  7 78  1  0  0  0  0
  7 79  1  0  0  0  0
  7 80  1  0  0  0  0
 13 81  1  0  0  0  0
 16 82  1  0  0  0  0
 19 83  1  0  0  0  0
 27 84  1  0  0  0  0
 27 85  1  0  0  0  0
 28 86  1  0  0  0  0
 28 87  1  0  0  0  0
 28 88  1  0  0  0  0
 30 89  1  0  0  0  0
 30 90  1  0  0  0  0
 32 91  1  0  0  0  0
 32 92  1  0  0  0  0
 32 93  1  0  0  0  0
 33 94  1  0  0  0  0
 33 95  1  0  0  0  0
 33 96  1  0  0  0  0
 34 97  1  0  0  0  0
 34 98  1  0  0  0  0
 36 99  1  0  0  0  0
  8100  1  0  0  0  0
 38101  1  0  0  0  0
 14102  1  0  0  0  0
 40103  1  0  0  0  0
 41104  1  0  0  0  0
 42105  1  0  0  0  0
 42106  1  0  0  0  0
 42107  1  0  0  0  0
 43108  1  0  0  0  0
 43109  1  0  0  0  0
 43110  1  0  0  0  0
 46111  1  0  0  0  0
 46112  1  0  0  0  0
 47113  1  0  0  0  0
 47114  1  0  0  0  0
 52115  1  0  0  0  0
 52116  1  0  0  0  0
 52117  1  0  0  0  0
 53118  1  0  0  0  0
 53119  1  0  0  0  0
 53120  1  0  0  0  0
 54121  1  0  0  0  0
 54122  1  0  0  0  0
 54123  1  0  0  0  0
 55124  1  0  0  0  0
 55125  1  0  0  0  0
 55126  1  0  0  0  0
 56127  1  0  0  0  0
 56128  1  0  0  0  0
 57129  1  0  0  0  0
 57130  1  0  0  0  0
 58131  1  0  0  0  0
 58132  1  0  0  0  0
 58133  1  0  0  0  0
 59134  1  0  0  0  0
 59135  1  0  0  0  0
 60136  1  0  0  0  0
 61137  1  0  0  0  0
 61138  1  0  0  0  0
 62139  1  0  0  0  0
 62140  1  0  0  0  0
 63141  1  0  0  0  0
 63142  1  0  0  0  0
 64143  1  0  0  0  0
 64144  1  0  0  0  0
 65145  1  0  0  0  0
 65146  1  0  0  0  0
 66147  1  0  0  0  0
 66148  1  0  0  0  0
 69149  1  0  0  0  0
 70150  1  0  0  0  0
 72151  1  0  0  0  0
M  END
