 xtb: 6.7.1 (edcfbbe)
          09292507203D

151157  0     0  0            999 V2000
   -8.1534   -2.3076    2.2743 C   0  0  0  0  0  0  0  0  0  0  0  0
   -8.9424   -3.6304    4.9625 N   0  0  0  0  0  0  0  0  0  0  0  0
   -8.8012   -4.5904    2.4085 O   0  0  0  0  0  0  0  0  0  0  0  0
   -7.7970   -3.6813    2.8534 C   0  0  0  0  0  0  0  0  0  0  0  0
   -4.8044   -4.5126    3.7408 N   0  0  0  0  0  0  0  0  0  0  0  0
   -2.9110    1.3913    5.1190 O   0  0  0  0  0  0  0  0  0  0  0  0
   -8.3484   -5.8230    1.9027 C   0  0  0  0  0  0  0  0  0  0  0  0
   -0.2812    2.9552    3.5676 N   0  0  0  0  0  0  0  0  0  0  0  0
    4.9198   -1.9605   -7.8526 O   0  0  0  0  0  0  0  0  0  0  0  0
   -7.7560   -3.6004    4.3735 C   0  0  0  0  0  0  0  0  0  0  0  0
    1.1168    2.9451    3.5438 N   0  0  0  0  0  0  0  0  0  0  0  0
    4.1500    1.0860   -3.1000 O   0  0  0  0  0  0  0  0  0  0  0  0
   -9.0269   -3.5036    6.2745 C   0  0  0  0  0  0  0  0  0  0  0  0
    1.6703    1.9762    0.1080 N   0  0  0  0  0  0  0  0  0  0  0  0
    1.8477    4.2193    0.1498 O   0  0  0  0  0  0  0  0  0  0  0  0
   -7.9211   -3.3210    7.0887 C   0  0  0  0  0  0  0  0  0  0  0  0
    2.3694    2.3836   -2.6369 N   0  0  0  0  0  0  0  0  0  0  0  0
    1.9650   -0.9060    0.5782 O   0  0  0  0  0  0  0  0  0  0  0  0
   -6.6754   -3.2973    6.4889 C   0  0  0  0  0  0  0  0  0  0  0  0
    3.9687   -0.1753   -6.8260 N   0  0  0  0  0  0  0  0  0  0  0  0
    2.9983    2.4443    2.4122 O   0  0  0  0  0  0  0  0  0  0  0  0
   -6.5638   -3.4435    5.1072 C   0  0  0  0  0  0  0  0  0  0  0  0
    7.6808    2.5123   -9.6380 N   0  0  0  0  0  0  0  0  0  0  0  0
   -2.8528    3.5651    4.5564 O   0  0  0  0  0  0  0  0  0  0  0  0
   -5.2381   -3.4294    4.4819 C   0  0  0  0  0  0  0  0  0  0  0  0
   -0.1207   -2.3922    1.7396 N   0  0  0  0  0  0  0  0  0  0  0  0
   -5.3125   -5.8541    3.8839 C   0  0  0  0  0  0  0  0  0  0  0  0
   -4.6031   -6.5994    5.0144 C   0  0  0  0  0  0  0  0  0  0  0  0
   -4.2973   -2.4250    4.4551 C   0  0  0  0  0  0  0  0  0  0  0  0
   -4.2715   -1.1337    5.2109 C   0  0  0  0  0  0  0  0  0  0  0  0
   -4.8981    0.0977    4.5160 C   0  0  0  0  0  0  0  0  0  0  0  0
   -6.4139    0.0980    4.7189 C   0  0  0  0  0  0  0  0  0  0  0  0
   -4.5644    0.1345    3.0256 C   0  0  0  0  0  0  0  0  0  0  0  0
   -4.3454    1.3634    5.1952 C   0  0  0  0  0  0  0  0  0  0  0  0
   -2.3042    2.5119    4.7950 C   0  0  0  0  0  0  0  0  0  0  0  0
   -0.7932    2.3404    4.7894 C   0  0  0  0  0  0  0  0  0  0  0  0
    1.7728    2.4715    2.4754 C   0  0  0  0  0  0  0  0  0  0  0  0
    0.8862    1.9753    1.3246 C   0  0  0  0  0  0  0  0  0  0  0  0
    2.1694    3.1423   -0.3325 C   0  0  0  0  0  0  0  0  0  0  0  0
    3.1030    3.0118   -1.5389 C   0  0  0  0  0  0  0  0  0  0  0  0
    3.7625    4.3639   -1.9066 C   0  0  0  0  0  0  0  0  0  0  0  0
    2.9522    5.1958   -2.8980 C   0  0  0  0  0  0  0  0  0  0  0  0
    5.1795    4.1360   -2.4359 C   0  0  0  0  0  0  0  0  0  0  0  0
    2.9932    1.4336   -3.3426 C   0  0  0  0  0  0  0  0  0  0  0  0
    2.3296    0.8148   -4.5875 C   0  0  0  0  0  0  0  0  0  0  0  0
    2.7721   -0.6413   -4.7721 C   0  0  0  0  0  0  0  0  0  0  0  0
    2.9066   -0.9757   -6.2518 C   0  0  0  0  0  0  0  0  0  0  0  0
    4.9420   -0.7673   -7.5411 C   0  0  0  0  0  0  0  0  0  0  0  0
    6.0370    0.0903   -7.9106 C   0  0  0  0  0  0  0  0  0  0  0  0
    6.9913    0.7391   -8.2519 C   0  0  0  0  0  0  0  0  0  0  0  0
    8.1544    1.5287   -8.6538 C   0  0  0  0  0  0  0  0  0  0  0  0
    6.7464    3.4755   -9.0892 C   0  0  0  0  0  0  0  0  0  0  0  0
    8.7121    3.1764  -10.4069 C   0  0  0  0  0  0  0  0  0  0  0  0
    8.7808    2.1494   -7.3873 C   0  0  0  0  0  0  0  0  0  0  0  0
    9.1502    0.5485   -9.2897 C   0  0  0  0  0  0  0  0  0  0  0  0
    4.0664    1.2003   -6.3705 C   0  0  0  0  0  0  0  0  0  0  0  0
    2.7324    1.6685   -5.8046 C   0  0  0  0  0  0  0  0  0  0  0  0
    0.9854    2.7809   -2.8237 C   0  0  0  0  0  0  0  0  0  0  0  0
    0.2996    0.5934    1.6075 C   0  0  0  0  0  0  0  0  0  0  0  0
    1.3785   -0.4822    1.8080 C   0  0  0  0  0  0  0  0  0  0  0  0
    0.8268   -1.6920    2.5745 C   0  0  0  0  0  0  0  0  0  0  0  0
    0.5455   -2.9191    0.5721 C   0  0  0  0  0  0  0  0  0  0  0  0
    1.1249   -1.7347   -0.2103 C   0  0  0  0  0  0  0  0  0  0  0  0
    1.8057    3.5484    4.6731 C   0  0  0  0  0  0  0  0  0  0  0  0
    1.3276    2.9011    5.9710 C   0  0  0  0  0  0  0  0  0  0  0  0
   -0.1960    2.9833    6.0533 C   0  0  0  0  0  0  0  0  0  0  0  0
   -3.2336   -2.8957    3.6217 C   0  0  0  0  0  0  0  0  0  0  0  0
   -3.5748   -4.2073    3.2197 C   0  0  0  0  0  0  0  0  0  0  0  0
   -2.7297   -4.9459    2.4039 C   0  0  0  0  0  0  0  0  0  0  0  0
   -1.5704   -4.3510    1.9555 C   0  0  0  0  0  0  0  0  0  0  0  0
   -1.2297   -3.0299    2.3019 C   0  0  0  0  0  0  0  0  0  0  0  0
   -2.0559   -2.3151    3.1591 C   0  0  0  0  0  0  0  0  0  0  0  0
    0.9338    0.8037   -4.5153 F   0  0  0  0  0  0  0  0  0  0  0  0
   -8.2813   -2.4003    1.1995 H   0  0  0  0  0  0  0  0  0  0  0  0
   -9.0887   -1.9689    2.7099 H   0  0  0  0  0  0  0  0  0  0  0  0
   -7.3664   -1.5898    2.4792 H   0  0  0  0  0  0  0  0  0  0  0  0
   -6.8193   -3.9884    2.4627 H   0  0  0  0  0  0  0  0  0  0  0  0
   -7.5837   -5.6797    1.1313 H   0  0  0  0  0  0  0  0  0  0  0  0
   -7.9488   -6.4709    2.6897 H   0  0  0  0  0  0  0  0  0  0  0  0
   -9.2223   -6.2985    1.4629 H   0  0  0  0  0  0  0  0  0  0  0  0
  -10.0288   -3.5485    6.6796 H   0  0  0  0  0  0  0  0  0  0  0  0
   -8.0317   -3.2105    8.1533 H   0  0  0  0  0  0  0  0  0  0  0  0
   -5.7806   -3.1849    7.0829 H   0  0  0  0  0  0  0  0  0  0  0  0
   -6.3805   -5.8008    4.1039 H   0  0  0  0  0  0  0  0  0  0  0  0
   -5.1723   -6.3826    2.9376 H   0  0  0  0  0  0  0  0  0  0  0  0
   -3.5319   -6.6293    4.8339 H   0  0  0  0  0  0  0  0  0  0  0  0
   -4.7815   -6.0974    5.9622 H   0  0  0  0  0  0  0  0  0  0  0  0
   -4.9786   -7.6160    5.0820 H   0  0  0  0  0  0  0  0  0  0  0  0
   -4.7756   -1.2626    6.1698 H   0  0  0  0  0  0  0  0  0  0  0  0
   -3.2229   -0.9067    5.4102 H   0  0  0  0  0  0  0  0  0  0  0  0
   -6.8768    0.9147    4.1712 H   0  0  0  0  0  0  0  0  0  0  0  0
   -6.8365   -0.8385    4.3713 H   0  0  0  0  0  0  0  0  0  0  0  0
   -6.6627    0.2070    5.7715 H   0  0  0  0  0  0  0  0  0  0  0  0
   -4.9407   -0.7574    2.5323 H   0  0  0  0  0  0  0  0  0  0  0  0
   -5.0121    1.0088    2.5579 H   0  0  0  0  0  0  0  0  0  0  0  0
   -3.4894    0.1767    2.8756 H   0  0  0  0  0  0  0  0  0  0  0  0
   -4.6084    1.3710    6.2572 H   0  0  0  0  0  0  0  0  0  0  0  0
   -4.7382    2.2673    4.7203 H   0  0  0  0  0  0  0  0  0  0  0  0
   -0.5491    1.2738    4.7687 H   0  0  0  0  0  0  0  0  0  0  0  0
   -0.6313    3.9140    3.5124 H   0  0  0  0  0  0  0  0  0  0  0  0
    0.0778    2.7040    1.2010 H   0  0  0  0  0  0  0  0  0  0  0  0
    2.1265    1.1032   -0.1312 H   0  0  0  0  0  0  0  0  0  0  0  0
    3.9050    2.3170   -1.2590 H   0  0  0  0  0  0  0  0  0  0  0  0
    3.8233    4.9271   -0.9687 H   0  0  0  0  0  0  0  0  0  0  0  0
    3.4677    6.1349   -3.0808 H   0  0  0  0  0  0  0  0  0  0  0  0
    2.8458    4.6756   -3.8465 H   0  0  0  0  0  0  0  0  0  0  0  0
    1.9709    5.4282   -2.4966 H   0  0  0  0  0  0  0  0  0  0  0  0
    5.5817    5.0620   -2.8422 H   0  0  0  0  0  0  0  0  0  0  0  0
    5.8356    3.7955   -1.6351 H   0  0  0  0  0  0  0  0  0  0  0  0
    5.1783    3.3793   -3.2207 H   0  0  0  0  0  0  0  0  0  0  0  0
    3.7315   -0.7812   -4.2714 H   0  0  0  0  0  0  0  0  0  0  0  0
    2.0331   -1.2908   -4.3037 H   0  0  0  0  0  0  0  0  0  0  0  0
    1.9639   -0.7816   -6.7740 H   0  0  0  0  0  0  0  0  0  0  0  0
    3.1724   -2.0241   -6.3984 H   0  0  0  0  0  0  0  0  0  0  0  0
    6.1880    3.9209   -9.9134 H   0  0  0  0  0  0  0  0  0  0  0  0
    6.0449    2.9655   -8.4323 H   0  0  0  0  0  0  0  0  0  0  0  0
    7.2399    4.2825   -8.5284 H   0  0  0  0  0  0  0  0  0  0  0  0
    8.2216    3.8619  -11.0959 H   0  0  0  0  0  0  0  0  0  0  0  0
    9.4145    3.7582   -9.7907 H   0  0  0  0  0  0  0  0  0  0  0  0
    9.2681    2.4509  -10.9938 H   0  0  0  0  0  0  0  0  0  0  0  0
    9.2104    1.3705   -6.7683 H   0  0  0  0  0  0  0  0  0  0  0  0
    9.5660    2.8425   -7.6659 H   0  0  0  0  0  0  0  0  0  0  0  0
    8.0367    2.6759   -6.8018 H   0  0  0  0  0  0  0  0  0  0  0  0
    8.7589    0.1795  -10.2342 H   0  0  0  0  0  0  0  0  0  0  0  0
   10.1124    1.0255   -9.4517 H   0  0  0  0  0  0  0  0  0  0  0  0
    9.2911   -0.2981   -8.6219 H   0  0  0  0  0  0  0  0  0  0  0  0
    4.8391    1.2859   -5.5951 H   0  0  0  0  0  0  0  0  0  0  0  0
    4.3528    1.8340   -7.2135 H   0  0  0  0  0  0  0  0  0  0  0  0
    1.9500    1.5774   -6.5584 H   0  0  0  0  0  0  0  0  0  0  0  0
    2.8151    2.7184   -5.5236 H   0  0  0  0  0  0  0  0  0  0  0  0
    0.3111    1.9625   -2.5730 H   0  0  0  0  0  0  0  0  0  0  0  0
    0.7719    3.6145   -2.1638 H   0  0  0  0  0  0  0  0  0  0  0  0
    0.7997    3.0909   -3.8500 H   0  0  0  0  0  0  0  0  0  0  0  0
   -0.3099    0.6659    2.5048 H   0  0  0  0  0  0  0  0  0  0  0  0
   -0.3529    0.3088    0.7834 H   0  0  0  0  0  0  0  0  0  0  0  0
    2.2213   -0.0559    2.3645 H   0  0  0  0  0  0  0  0  0  0  0  0
    0.3565   -1.3678    3.4998 H   0  0  0  0  0  0  0  0  0  0  0  0
    1.6730   -2.3542    2.8282 H   0  0  0  0  0  0  0  0  0  0  0  0
    1.3589   -3.6125    0.8448 H   0  0  0  0  0  0  0  0  0  0  0  0
   -0.1694   -3.4339   -0.0685 H   0  0  0  0  0  0  0  0  0  0  0  0
    0.2993   -1.1470   -0.6305 H   0  0  0  0  0  0  0  0  0  0  0  0
    1.7608   -2.0866   -1.0242 H   0  0  0  0  0  0  0  0  0  0  0  0
    2.8742    3.4003    4.5142 H   0  0  0  0  0  0  0  0  0  0  0  0
    1.5903    4.6229    4.6807 H   0  0  0  0  0  0  0  0  0  0  0  0
    1.7809    3.4138    6.8180 H   0  0  0  0  0  0  0  0  0  0  0  0
    1.6410    1.8563    5.9893 H   0  0  0  0  0  0  0  0  0  0  0  0
   -0.5157    4.0264    6.1016 H   0  0  0  0  0  0  0  0  0  0  0  0
   -0.5613    2.4675    6.9399 H   0  0  0  0  0  0  0  0  0  0  0  0
   -2.9656   -5.9591    2.1164 H   0  0  0  0  0  0  0  0  0  0  0  0
   -0.9059   -4.9249    1.3289 H   0  0  0  0  0  0  0  0  0  0  0  0
   -1.8059   -1.3041    3.4397 H   0  0  0  0  0  0  0  0  0  0  0  0
  1  4  1  0  0  0  0
  3  4  1  0  0  0  0
  3  7  1  0  0  0  0
  2 10  4  0  0  0  0
  4 10  1  0  0  0  0
  8 11  1  0  0  0  0
  2 13  4  0  0  0  0
 13 16  4  0  0  0  0
 16 19  4  0  0  0  0
 10 22  4  0  0  0  0
 19 22  4  0  0  0  0
  5 25  1  0  0  0  0
 22 25  1  0  0  0  0
  5 27  1  0  0  0  0
 27 28  1  0  0  0  0
 25 29  2  0  0  0  0
 29 30  1  0  0  0  0
 30 31  1  0  0  0  0
 31 32  1  0  0  0  0
 31 33  1  0  0  0  0
  6 34  1  0  0  0  0
 31 34  1  0  0  0  0
  6 35  1  0  0  0  0
 24 35  2  0  0  0  0
  8 36  1  0  0  0  0
 35 36  1  0  0  0  0
 11 37  4  0  0  0  0
 21 37  2  0  0  0  0
 14 38  1  0  0  0  0
 37 38  1  0  0  0  0
 14 39  4  0  0  0  0
 15 39  2  0  0  0  0
 17 40  1  0  0  0  0
 39 40  1  0  0  0  0
 40 41  1  0  0  0  0
 41 42  1  0  0  0  0
 41 43  1  0  0  0  0
 12 44  2  0  0  0  0
 17 44  4  0  0  0  0
 44 45  1  0  0  0  0
 45 46  1  0  0  0  0
 20 47  1  0  0  0  0
 46 47  1  0  0  0  0
  9 48  2  0  0  0  0
 20 48  4  0  0  0  0
 48 49  1  0  0  0  0
 49 50  3  0  0  0  0
 23 51  1  0  0  0  0
 50 51  1  0  0  0  0
 23 52  1  0  0  0  0
 23 53  1  0  0  0  0
 51 54  1  0  0  0  0
 51 55  1  0  0  0  0
 20 56  1  0  0  0  0
 45 57  1  0  0  0  0
 56 57  1  0  0  0  0
 17 58  1  0  0  0  0
 38 59  1  0  0  0  0
 18 60  1  0  0  0  0
 59 60  1  0  0  0  0
 26 61  1  0  0  0  0
 60 61  1  0  0  0  0
 26 62  1  0  0  0  0
 18 63  1  0  0  0  0
 62 63  1  0  0  0  0
 11 64  1  0  0  0  0
 64 65  1  0  0  0  0
 36 66  1  0  0  0  0
 65 66  1  0  0  0  0
 29 67  4  0  0  0  0
  5 68  1  0  0  0  0
 67 68  4  0  0  0  0
 68 69  4  0  0  0  0
 69 70  4  0  0  0  0
 26 71  1  0  0  0  0
 70 71  4  0  0  0  0
 67 72  4  0  0  0  0
 71 72  4  0  0  0  0
 45 73  1  0  0  0  0
  1 74  1  0  0  0  0
  1 75  1  0  0  0  0
  1 76  1  0  0  0  0
  4 77  1  0  0  0  0
  7 78  1  0  0  0  0
  7 79  1  0  0  0  0
  7 80  1  0  0  0  0
 13 81  1  0  0  0  0
 16 82  1  0  0  0  0
 19 83  1  0  0  0  0
 27 84  1  0  0  0  0
 27 85  1  0  0  0  0
 28 86  1  0  0  0  0
 28 87  1  0  0  0  0
 28 88  1  0  0  0  0
 30 89  1  0  0  0  0
 30 90  1  0  0  0  0
 32 91  1  0  0  0  0
 32 92  1  0  0  0  0
 32 93  1  0  0  0  0
 33 94  1  0  0  0  0
 33 95  1  0  0  0  0
 33 96  1  0  0  0  0
 34 97  1  0  0  0  0
 34 98  1  0  0  0  0
 36 99  1  0  0  0  0
  8100  1  0  0  0  0
 38101  1  0  0  0  0
 14102  1  0  0  0  0
 40103  1  0  0  0  0
 41104  1  0  0  0  0
 42105  1  0  0  0  0
 42106  1  0  0  0  0
 42107  1  0  0  0  0
 43108  1  0  0  0  0
 43109  1  0  0  0  0
 43110  1  0  0  0  0
 46111  1  0  0  0  0
 46112  1  0  0  0  0
 47113  1  0  0  0  0
 47114  1  0  0  0  0
 52115  1  0  0  0  0
 52116  1  0  0  0  0
 52117  1  0  0  0  0
 53118  1  0  0  0  0
 53119  1  0  0  0  0
 53120  1  0  0  0  0
 54121  1  0  0  0  0
 54122  1  0  0  0  0
 54123  1  0  0  0  0
 55124  1  0  0  0  0
 55125  1  0  0  0  0
 55126  1  0  0  0  0
 56127  1  0  0  0  0
 56128  1  0  0  0  0
 57129  1  0  0  0  0
 57130  1  0  0  0  0
 58131  1  0  0  0  0
 58132  1  0  0  0  0
 58133  1  0  0  0  0
 59134  1  0  0  0  0
 59135  1  0  0  0  0
 60136  1  0  0  0  0
 61137  1  0  0  0  0
 61138  1  0  0  0  0
 62139  1  0  0  0  0
 62140  1  0  0  0  0
 63141  1  0  0  0  0
 63142  1  0  0  0  0
 64143  1  0  0  0  0
 64144  1  0  0  0  0
 65145  1  0  0  0  0
 65146  1  0  0  0  0
 66147  1  0  0  0  0
 66148  1  0  0  0  0
 69149  1  0  0  0  0
 70150  1  0  0  0  0
 72151  1  0  0  0  0
M  END
