 xtb: 6.7.1 (edcfbbe)
          10012510243D

151157  0     0  0            999 V2000
   -7.7783   -4.2890    4.4832 C   0  0  0  0  0  0  0  0  0  0  0  0
   -6.0208   -6.4818    4.5339 N   0  0  0  0  0  0  0  0  0  0  0  0
   -7.3955   -5.1296    2.2134 O   0  0  0  0  0  0  0  0  0  0  0  0
   -6.7799   -4.5192    3.3494 C   0  0  0  0  0  0  0  0  0  0  0  0
   -4.2360   -3.9473    1.3036 N   0  0  0  0  0  0  0  0  0  0  0  0
   -1.9461    0.1933    4.5924 O   0  0  0  0  0  0  0  0  0  0  0  0
   -8.1327   -4.2361    1.4078 C   0  0  0  0  0  0  0  0  0  0  0  0
   -0.0669    3.0267    3.5323 N   0  0  0  0  0  0  0  0  0  0  0  0
    1.4945   -1.5097   -4.5416 O   0  0  0  0  0  0  0  0  0  0  0  0
   -5.6627   -5.4415    3.7963 C   0  0  0  0  0  0  0  0  0  0  0  0
    1.2531    3.4728    3.6305 N   0  0  0  0  0  0  0  0  0  0  0  0
    4.0335    2.8085   -2.5788 O   0  0  0  0  0  0  0  0  0  0  0  0
   -5.0948   -7.3171    4.9706 C   0  0  0  0  0  0  0  0  0  0  0  0
    2.3383    3.9024    0.1658 N   0  0  0  0  0  0  0  0  0  0  0  0
    1.6094    6.0123   -0.1933 O   0  0  0  0  0  0  0  0  0  0  0  0
   -3.7431   -7.1537    4.7105 C   0  0  0  0  0  0  0  0  0  0  0  0
    2.8524    4.7167   -2.7522 N   0  0  0  0  0  0  0  0  0  0  0  0
   -0.8651    3.3898   -0.6393 O   0  0  0  0  0  0  0  0  0  0  0  0
   -3.3594   -6.0710    3.9401 C   0  0  0  0  0  0  0  0  0  0  0  0
    2.0473    0.3626   -5.7024 N   0  0  0  0  0  0  0  0  0  0  0  0
    3.2023    3.9977    2.6409 O   0  0  0  0  0  0  0  0  0  0  0  0
   -4.3254   -5.1921    3.4531 C   0  0  0  0  0  0  0  0  0  0  0  0
    6.4924   -2.2722   -7.1889 N   0  0  0  0  0  0  0  0  0  0  0  0
   -2.6394    2.2695    4.1066 O   0  0  0  0  0  0  0  0  0  0  0  0
   -3.9031   -4.0479    2.6376 C   0  0  0  0  0  0  0  0  0  0  0  0
   -1.7975    0.8886    0.1975 N   0  0  0  0  0  0  0  0  0  0  0  0
   -4.7673   -5.0127    0.4892 C   0  0  0  0  0  0  0  0  0  0  0  0
   -3.6426   -5.8566   -0.1082 C   0  0  0  0  0  0  0  0  0  0  0  0
   -3.1410   -2.9689    3.0246 C   0  0  0  0  0  0  0  0  0  0  0  0
   -2.5680   -2.7012    4.3798 C   0  0  0  0  0  0  0  0  0  0  0  0
   -3.3399   -1.6888    5.2577 C   0  0  0  0  0  0  0  0  0  0  0  0
   -2.6952   -1.6678    6.6469 C   0  0  0  0  0  0  0  0  0  0  0  0
   -4.8067   -2.0995    5.3819 C   0  0  0  0  0  0  0  0  0  0  0  0
   -3.3006   -0.2776    4.6622 C   0  0  0  0  0  0  0  0  0  0  0  0
   -1.7560    1.4650    4.3063 C   0  0  0  0  0  0  0  0  0  0  0  0
   -0.2775    1.8168    4.3212 C   0  0  0  0  0  0  0  0  0  0  0  0
    2.0234    3.6621    2.5458 C   0  0  0  0  0  0  0  0  0  0  0  0
    1.3557    3.5568    1.1697 C   0  0  0  0  0  0  0  0  0  0  0  0
    2.3964    5.1007   -0.4227 C   0  0  0  0  0  0  0  0  0  0  0  0
    3.4721    5.1946   -1.5125 C   0  0  0  0  0  0  0  0  0  0  0  0
    4.0631    6.6065   -1.6086 C   0  0  0  0  0  0  0  0  0  0  0  0
    5.0206    6.7223   -2.7909 C   0  0  0  0  0  0  0  0  0  0  0  0
    4.7990    6.8989   -0.2999 C   0  0  0  0  0  0  0  0  0  0  0  0
    3.2220    3.5093   -3.1897 C   0  0  0  0  0  0  0  0  0  0  0  0
    2.6095    2.9016   -4.4677 C   0  0  0  0  0  0  0  0  0  0  0  0
    1.4300    2.0175   -4.0382 C   0  0  0  0  0  0  0  0  0  0  0  0
    0.9351    1.1215   -5.1784 C   0  0  0  0  0  0  0  0  0  0  0  0
    2.3004   -0.8746   -5.2242 C   0  0  0  0  0  0  0  0  0  0  0  0
    3.5821   -1.4308   -5.5739 C   0  0  0  0  0  0  0  0  0  0  0  0
    4.6342   -1.9960   -5.7320 C   0  0  0  0  0  0  0  0  0  0  0  0
    5.9315   -2.6526   -5.8866 C   0  0  0  0  0  0  0  0  0  0  0  0
    7.6776   -3.0005   -7.5920 C   0  0  0  0  0  0  0  0  0  0  0  0
    6.7055   -0.8468   -7.3439 C   0  0  0  0  0  0  0  0  0  0  0  0
    6.7978   -2.2404   -4.6755 C   0  0  0  0  0  0  0  0  0  0  0  0
    5.6649   -4.1656   -5.8329 C   0  0  0  0  0  0  0  0  0  0  0  0
    3.0601    1.2073   -6.2898 C   0  0  0  0  0  0  0  0  0  0  0  0
    3.6830    2.0956   -5.2097 C   0  0  0  0  0  0  0  0  0  0  0  0
    1.7665    5.5138   -3.2865 C   0  0  0  0  0  0  0  0  0  0  0  0
    0.7380    2.2027    0.8183 C   0  0  0  0  0  0  0  0  0  0  0  0
    0.0141    2.2806   -0.5377 C   0  0  0  0  0  0  0  0  0  0  0  0
   -0.7575    0.9804   -0.8039 C   0  0  0  0  0  0  0  0  0  0  0  0
   -2.7429    1.9802    0.0414 C   0  0  0  0  0  0  0  0  0  0  0  0
   -1.9883    3.2971    0.2238 C   0  0  0  0  0  0  0  0  0  0  0  0
    1.7646    3.7109    4.9729 C   0  0  0  0  0  0  0  0  0  0  0  0
    1.6207    2.4457    5.8149 C   0  0  0  0  0  0  0  0  0  0  0  0
    0.1653    1.9848    5.7873 C   0  0  0  0  0  0  0  0  0  0  0  0
   -2.9810   -2.1593    1.8607 C   0  0  0  0  0  0  0  0  0  0  0  0
   -3.6755   -2.8042    0.8072 C   0  0  0  0  0  0  0  0  0  0  0  0
   -3.7299   -2.2511   -0.4679 C   0  0  0  0  0  0  0  0  0  0  0  0
   -3.1144   -1.0356   -0.6760 C   0  0  0  0  0  0  0  0  0  0  0  0
   -2.4134   -0.3914    0.3542 C   0  0  0  0  0  0  0  0  0  0  0  0
   -2.3161   -0.9624    1.6059 C   0  0  0  0  0  0  0  0  0  0  0  0
    2.1491    3.8810   -5.3508 F   0  0  0  0  0  0  0  0  0  0  0  0
   -8.5373   -3.5714    4.1839 H   0  0  0  0  0  0  0  0  0  0  0  0
   -8.2499   -5.2345    4.7341 H   0  0  0  0  0  0  0  0  0  0  0  0
   -7.2583   -3.9066    5.3560 H   0  0  0  0  0  0  0  0  0  0  0  0
   -6.3410   -3.5602    3.0321 H   0  0  0  0  0  0  0  0  0  0  0  0
   -8.5110   -4.8242    0.5763 H   0  0  0  0  0  0  0  0  0  0  0  0
   -8.9706   -3.7946    1.9504 H   0  0  0  0  0  0  0  0  0  0  0  0
   -7.4870   -3.4336    1.0319 H   0  0  0  0  0  0  0  0  0  0  0  0
   -5.4614   -8.1457    5.5614 H   0  0  0  0  0  0  0  0  0  0  0  0
   -3.0173   -7.8516    5.0949 H   0  0  0  0  0  0  0  0  0  0  0  0
   -2.3195   -5.9022    3.7005 H   0  0  0  0  0  0  0  0  0  0  0  0
   -5.4222   -5.6338    1.1026 H   0  0  0  0  0  0  0  0  0  0  0  0
   -5.3641   -4.5678   -0.3094 H   0  0  0  0  0  0  0  0  0  0  0  0
   -3.0035   -6.2450    0.6828 H   0  0  0  0  0  0  0  0  0  0  0  0
   -4.0598   -6.6932   -0.6616 H   0  0  0  0  0  0  0  0  0  0  0  0
   -3.0331   -5.2555   -0.7800 H   0  0  0  0  0  0  0  0  0  0  0  0
   -2.5328   -3.6402    4.9322 H   0  0  0  0  0  0  0  0  0  0  0  0
   -1.5491   -2.3321    4.2569 H   0  0  0  0  0  0  0  0  0  0  0  0
   -1.6194   -1.5203    6.5660 H   0  0  0  0  0  0  0  0  0  0  0  0
   -3.1101   -0.8606    7.2466 H   0  0  0  0  0  0  0  0  0  0  0  0
   -2.8811   -2.6096    7.1601 H   0  0  0  0  0  0  0  0  0  0  0  0
   -4.8744   -3.1455    5.6722 H   0  0  0  0  0  0  0  0  0  0  0  0
   -5.3113   -1.4991    6.1323 H   0  0  0  0  0  0  0  0  0  0  0  0
   -5.3217   -1.9716    4.4337 H   0  0  0  0  0  0  0  0  0  0  0  0
   -3.8757    0.4191    5.2817 H   0  0  0  0  0  0  0  0  0  0  0  0
   -3.7240   -0.2675    3.6541 H   0  0  0  0  0  0  0  0  0  0  0  0
    0.2938    1.0051    3.8574 H   0  0  0  0  0  0  0  0  0  0  0  0
   -0.7181    3.7507    3.8370 H   0  0  0  0  0  0  0  0  0  0  0  0
    0.5857    4.3369    1.1232 H   0  0  0  0  0  0  0  0  0  0  0  0
    3.0922    3.2468    0.0210 H   0  0  0  0  0  0  0  0  0  0  0  0
    4.2795    4.4908   -1.2897 H   0  0  0  0  0  0  0  0  0  0  0  0
    3.2480    7.3273   -1.7152 H   0  0  0  0  0  0  0  0  0  0  0  0
    5.4329    7.7265   -2.8320 H   0  0  0  0  0  0  0  0  0  0  0  0
    5.8377    6.0131   -2.6777 H   0  0  0  0  0  0  0  0  0  0  0  0
    4.5159    6.5181   -3.7307 H   0  0  0  0  0  0  0  0  0  0  0  0
    5.6338    6.2127   -0.1720 H   0  0  0  0  0  0  0  0  0  0  0  0
    5.1807    7.9151   -0.3026 H   0  0  0  0  0  0  0  0  0  0  0  0
    4.1298    6.7838    0.5500 H   0  0  0  0  0  0  0  0  0  0  0  0
    1.7792    1.3847   -3.2189 H   0  0  0  0  0  0  0  0  0  0  0  0
    0.6110    2.6415   -3.6780 H   0  0  0  0  0  0  0  0  0  0  0  0
    0.5113    1.7260   -5.9835 H   0  0  0  0  0  0  0  0  0  0  0  0
    0.1829    0.4253   -4.8015 H   0  0  0  0  0  0  0  0  0  0  0  0
    8.5522   -2.7940   -6.9566 H   0  0  0  0  0  0  0  0  0  0  0  0
    7.4836   -4.0684   -7.5979 H   0  0  0  0  0  0  0  0  0  0  0  0
    7.9226   -2.6952   -8.6085 H   0  0  0  0  0  0  0  0  0  0  0  0
    7.6169   -0.4897   -6.8426 H   0  0  0  0  0  0  0  0  0  0  0  0
    6.7927   -0.6283   -8.4080 H   0  0  0  0  0  0  0  0  0  0  0  0
    5.8526   -0.3025   -6.9454 H   0  0  0  0  0  0  0  0  0  0  0  0
    6.8858   -1.1584   -4.6089 H   0  0  0  0  0  0  0  0  0  0  0  0
    6.3410   -2.6047   -3.7588 H   0  0  0  0  0  0  0  0  0  0  0  0
    7.7909   -2.6744   -4.7678 H   0  0  0  0  0  0  0  0  0  0  0  0
    4.9968   -4.3826   -5.0034 H   0  0  0  0  0  0  0  0  0  0  0  0
    5.1904   -4.4903   -6.7543 H   0  0  0  0  0  0  0  0  0  0  0  0
    6.5896   -4.7144   -5.6830 H   0  0  0  0  0  0  0  0  0  0  0  0
    3.8243    0.5893   -6.7587 H   0  0  0  0  0  0  0  0  0  0  0  0
    2.5826    1.8294   -7.0511 H   0  0  0  0  0  0  0  0  0  0  0  0
    4.3934    2.7893   -5.6607 H   0  0  0  0  0  0  0  0  0  0  0  0
    4.2080    1.4843   -4.4743 H   0  0  0  0  0  0  0  0  0  0  0  0
    0.9208    4.8852   -3.5549 H   0  0  0  0  0  0  0  0  0  0  0  0
    1.4384    6.2015   -2.5097 H   0  0  0  0  0  0  0  0  0  0  0  0
    2.0804    6.0804   -4.1619 H   0  0  0  0  0  0  0  0  0  0  0  0
    1.5193    1.4467    0.7457 H   0  0  0  0  0  0  0  0  0  0  0  0
    0.0204    1.9108    1.5790 H   0  0  0  0  0  0  0  0  0  0  0  0
    0.7483    2.4541   -1.3302 H   0  0  0  0  0  0  0  0  0  0  0  0
   -0.0945    0.1199   -0.7136 H   0  0  0  0  0  0  0  0  0  0  0  0
   -1.1601    1.0123   -1.8328 H   0  0  0  0  0  0  0  0  0  0  0  0
   -3.2317    1.9654   -0.9509 H   0  0  0  0  0  0  0  0  0  0  0  0
   -3.5079    1.8968    0.8145 H   0  0  0  0  0  0  0  0  0  0  0  0
   -1.6774    3.3873    1.2708 H   0  0  0  0  0  0  0  0  0  0  0  0
   -2.6206    4.1453   -0.0419 H   0  0  0  0  0  0  0  0  0  0  0  0
    2.8067    4.0131    4.8736 H   0  0  0  0  0  0  0  0  0  0  0  0
    1.1917    4.5314    5.4181 H   0  0  0  0  0  0  0  0  0  0  0  0
    1.9325    2.6531    6.8375 H   0  0  0  0  0  0  0  0  0  0  0  0
    2.2657    1.6675    5.4066 H   0  0  0  0  0  0  0  0  0  0  0  0
   -0.4713    2.7330    6.2645 H   0  0  0  0  0  0  0  0  0  0  0  0
    0.0462    1.0396    6.3145 H   0  0  0  0  0  0  0  0  0  0  0  0
   -4.2456   -2.7464   -1.2762 H   0  0  0  0  0  0  0  0  0  0  0  0
   -3.1648   -0.5720   -1.6514 H   0  0  0  0  0  0  0  0  0  0  0  0
   -1.7277   -0.4701    2.3614 H   0  0  0  0  0  0  0  0  0  0  0  0
  1  4  1  0  0  0  0
  3  4  1  0  0  0  0
  3  7  1  0  0  0  0
  2 10  4  0  0  0  0
  4 10  1  0  0  0  0
  8 11  1  0  0  0  0
  2 13  4  0  0  0  0
 13 16  4  0  0  0  0
 16 19  4  0  0  0  0
 10 22  4  0  0  0  0
 19 22  4  0  0  0  0
  5 25  1  0  0  0  0
 22 25  1  0  0  0  0
  5 27  1  0  0  0  0
 27 28  1  0  0  0  0
 25 29  2  0  0  0  0
 29 30  1  0  0  0  0
 30 31  1  0  0  0  0
 31 32  1  0  0  0  0
 31 33  1  0  0  0  0
  6 34  1  0  0  0  0
 31 34  1  0  0  0  0
  6 35  1  0  0  0  0
 24 35  2  0  0  0  0
  8 36  1  0  0  0  0
 35 36  1  0  0  0  0
 11 37  4  0  0  0  0
 21 37  2  0  0  0  0
 14 38  1  0  0  0  0
 37 38  1  0  0  0  0
 14 39  4  0  0  0  0
 15 39  2  0  0  0  0
 17 40  1  0  0  0  0
 39 40  1  0  0  0  0
 40 41  1  0  0  0  0
 41 42  1  0  0  0  0
 41 43  1  0  0  0  0
 12 44  2  0  0  0  0
 17 44  4  0  0  0  0
 44 45  1  0  0  0  0
 45 46  1  0  0  0  0
 20 47  1  0  0  0  0
 46 47  1  0  0  0  0
  9 48  2  0  0  0  0
 20 48  4  0  0  0  0
 48 49  1  0  0  0  0
 49 50  3  0  0  0  0
 23 51  1  0  0  0  0
 50 51  1  0  0  0  0
 23 52  1  0  0  0  0
 23 53  1  0  0  0  0
 51 54  1  0  0  0  0
 51 55  1  0  0  0  0
 20 56  1  0  0  0  0
 45 57  1  0  0  0  0
 56 57  1  0  0  0  0
 17 58  1  0  0  0  0
 38 59  1  0  0  0  0
 18 60  1  0  0  0  0
 59 60  1  0  0  0  0
 26 61  1  0  0  0  0
 60 61  1  0  0  0  0
 26 62  1  0  0  0  0
 18 63  1  0  0  0  0
 62 63  1  0  0  0  0
 11 64  1  0  0  0  0
 64 65  1  0  0  0  0
 36 66  1  0  0  0  0
 65 66  1  0  0  0  0
 29 67  4  0  0  0  0
  5 68  1  0  0  0  0
 67 68  4  0  0  0  0
 68 69  4  0  0  0  0
 69 70  4  0  0  0  0
 26 71  1  0  0  0  0
 70 71  4  0  0  0  0
 67 72  4  0  0  0  0
 71 72  4  0  0  0  0
 45 73  1  0  0  0  0
  1 74  1  0  0  0  0
  1 75  1  0  0  0  0
  1 76  1  0  0  0  0
  4 77  1  0  0  0  0
  7 78  1  0  0  0  0
  7 79  1  0  0  0  0
  7 80  1  0  0  0  0
 13 81  1  0  0  0  0
 16 82  1  0  0  0  0
 19 83  1  0  0  0  0
 27 84  1  0  0  0  0
 27 85  1  0  0  0  0
 28 86  1  0  0  0  0
 28 87  1  0  0  0  0
 28 88  1  0  0  0  0
 30 89  1  0  0  0  0
 30 90  1  0  0  0  0
 32 91  1  0  0  0  0
 32 92  1  0  0  0  0
 32 93  1  0  0  0  0
 33 94  1  0  0  0  0
 33 95  1  0  0  0  0
 33 96  1  0  0  0  0
 34 97  1  0  0  0  0
 34 98  1  0  0  0  0
 36 99  1  0  0  0  0
  8100  1  0  0  0  0
 38101  1  0  0  0  0
 14102  1  0  0  0  0
 40103  1  0  0  0  0
 41104  1  0  0  0  0
 42105  1  0  0  0  0
 42106  1  0  0  0  0
 42107  1  0  0  0  0
 43108  1  0  0  0  0
 43109  1  0  0  0  0
 43110  1  0  0  0  0
 46111  1  0  0  0  0
 46112  1  0  0  0  0
 47113  1  0  0  0  0
 47114  1  0  0  0  0
 52115  1  0  0  0  0
 52116  1  0  0  0  0
 52117  1  0  0  0  0
 53118  1  0  0  0  0
 53119  1  0  0  0  0
 53120  1  0  0  0  0
 54121  1  0  0  0  0
 54122  1  0  0  0  0
 54123  1  0  0  0  0
 55124  1  0  0  0  0
 55125  1  0  0  0  0
 55126  1  0  0  0  0
 56127  1  0  0  0  0
 56128  1  0  0  0  0
 57129  1  0  0  0  0
 57130  1  0  0  0  0
 58131  1  0  0  0  0
 58132  1  0  0  0  0
 58133  1  0  0  0  0
 59134  1  0  0  0  0
 59135  1  0  0  0  0
 60136  1  0  0  0  0
 61137  1  0  0  0  0
 61138  1  0  0  0  0
 62139  1  0  0  0  0
 62140  1  0  0  0  0
 63141  1  0  0  0  0
 63142  1  0  0  0  0
 64143  1  0  0  0  0
 64144  1  0  0  0  0
 65145  1  0  0  0  0
 65146  1  0  0  0  0
 66147  1  0  0  0  0
 66148  1  0  0  0  0
 69149  1  0  0  0  0
 70150  1  0  0  0  0
 72151  1  0  0  0  0
M  END
