 xtb: 6.7.1 (edcfbbe)
          09282514443D

151157  0     0  0            999 V2000
   30.7455   -1.3063   18.9690 C   0  0  0  0  0  0  0  0  0  0  0  0
   29.9846    1.3236   18.4235 N   0  0  0  0  0  0  0  0  0  0  0  0
   28.8665   -1.3150   17.3897 O   0  0  0  0  0  0  0  0  0  0  0  0
   29.2775   -0.9700   18.7123 C   0  0  0  0  0  0  0  0  0  0  0  0
   25.9692   -0.5372   19.0346 N   0  0  0  0  0  0  0  0  0  0  0  0
   25.9274   -0.8960   24.7982 O   0  0  0  0  0  0  0  0  0  0  0  0
   28.6304   -2.6903   17.1880 C   0  0  0  0  0  0  0  0  0  0  0  0
   23.1175   -1.9535   26.7466 N   0  0  0  0  0  0  0  0  0  0  0  0
   11.7133   -8.8218   21.9230 O   0  0  0  0  0  0  0  0  0  0  0  0
   29.0322    0.5192   18.8708 C   0  0  0  0  0  0  0  0  0  0  0  0
   22.0451   -1.3607   27.4235 N   0  0  0  0  0  0  0  0  0  0  0  0
   15.6154   -4.8534   24.7722 O   0  0  0  0  0  0  0  0  0  0  0  0
   29.8411    2.6309   18.5494 C   0  0  0  0  0  0  0  0  0  0  0  0
   19.1560   -3.2977   26.2937 N   0  0  0  0  0  0  0  0  0  0  0  0
   19.5753   -5.2275   27.3754 O   0  0  0  0  0  0  0  0  0  0  0  0
   28.7436    3.2186   19.1588 C   0  0  0  0  0  0  0  0  0  0  0  0
   16.8923   -5.9473   26.2727 N   0  0  0  0  0  0  0  0  0  0  0  0
   21.3960   -4.8913   24.3942 O   0  0  0  0  0  0  0  0  0  0  0  0
   27.7390    2.3873   19.6202 C   0  0  0  0  0  0  0  0  0  0  0  0
   13.2673   -8.7594   23.5730 N   0  0  0  0  0  0  0  0  0  0  0  0
   19.8351   -1.2096   27.7964 O   0  0  0  0  0  0  0  0  0  0  0  0
   27.8592    1.0075   19.4640 C   0  0  0  0  0  0  0  0  0  0  0  0
    9.7961  -12.3721   25.7039 N   0  0  0  0  0  0  0  0  0  0  0  0
   25.5518   -2.8098   25.9008 O   0  0  0  0  0  0  0  0  0  0  0  0
   26.7743    0.1354   19.9278 C   0  0  0  0  0  0  0  0  0  0  0  0
   22.7333   -3.1324   22.6673 N   0  0  0  0  0  0  0  0  0  0  0  0
   25.9234   -0.3123   17.6115 C   0  0  0  0  0  0  0  0  0  0  0  0
   25.0374    0.8845   17.2695 C   0  0  0  0  0  0  0  0  0  0  0  0
   26.3810   -0.1220   21.2216 C   0  0  0  0  0  0  0  0  0  0  0  0
   26.9439    0.4867   22.4675 C   0  0  0  0  0  0  0  0  0  0  0  0
   27.8428   -0.4074   23.3540 C   0  0  0  0  0  0  0  0  0  0  0  0
   28.5374    0.4879   24.3842 C   0  0  0  0  0  0  0  0  0  0  0  0
   28.8891   -1.1218   22.4987 C   0  0  0  0  0  0  0  0  0  0  0  0
   27.0369   -1.4820   24.0960 C   0  0  0  0  0  0  0  0  0  0  0  0
   25.2429   -1.6735   25.6176 C   0  0  0  0  0  0  0  0  0  0  0  0
   24.0244   -0.9573   26.1821 C   0  0  0  0  0  0  0  0  0  0  0  0
   20.7731   -1.7308   27.2005 C   0  0  0  0  0  0  0  0  0  0  0  0
   20.5379   -2.8756   26.2132 C   0  0  0  0  0  0  0  0  0  0  0  0
   18.7793   -4.4433   26.8744 C   0  0  0  0  0  0  0  0  0  0  0  0
   17.2623   -4.6719   26.8839 C   0  0  0  0  0  0  0  0  0  0  0  0
   16.7366   -4.5587   28.3310 C   0  0  0  0  0  0  0  0  0  0  0  0
   15.2225   -4.7491   28.3610 C   0  0  0  0  0  0  0  0  0  0  0  0
   17.1110   -3.1958   28.9096 C   0  0  0  0  0  0  0  0  0  0  0  0
   16.0314   -5.9125   25.2472 C   0  0  0  0  0  0  0  0  0  0  0  0
   15.4567   -7.2229   24.6664 C   0  0  0  0  0  0  0  0  0  0  0  0
   14.9382   -6.9868   23.2455 C   0  0  0  0  0  0  0  0  0  0  0  0
   14.3016   -8.2591   22.6939 C   0  0  0  0  0  0  0  0  0  0  0  0
   12.0503   -9.0617   23.0848 C   0  0  0  0  0  0  0  0  0  0  0  0
   11.1358   -9.7200   23.9841 C   0  0  0  0  0  0  0  0  0  0  0  0
   10.2847  -10.3538   24.5549 C   0  0  0  0  0  0  0  0  0  0  0  0
    9.2379  -11.0846   25.2688 C   0  0  0  0  0  0  0  0  0  0  0  0
    8.8423  -13.2980   26.2786 C   0  0  0  0  0  0  0  0  0  0  0  0
   10.9646  -12.2551   26.5526 C   0  0  0  0  0  0  0  0  0  0  0  0
    8.7292  -10.1852   26.4159 C   0  0  0  0  0  0  0  0  0  0  0  0
    8.1045  -11.3122   24.2540 C   0  0  0  0  0  0  0  0  0  0  0  0
   13.6928   -9.0024   24.9296 C   0  0  0  0  0  0  0  0  0  0  0  0
   14.3050   -7.7364   25.5398 C   0  0  0  0  0  0  0  0  0  0  0  0
   17.4555   -7.1543   26.8472 C   0  0  0  0  0  0  0  0  0  0  0  0
   20.8724   -2.5124   24.7651 C   0  0  0  0  0  0  0  0  0  0  0  0
   20.7518   -3.7477   23.8545 C   0  0  0  0  0  0  0  0  0  0  0  0
   21.3338   -3.4361   22.4682 C   0  0  0  0  0  0  0  0  0  0  0  0
   23.4342   -4.3000   23.1788 C   0  0  0  0  0  0  0  0  0  0  0  0
   22.8029   -4.7369   24.4989 C   0  0  0  0  0  0  0  0  0  0  0  0
   22.3799   -0.3852   28.4528 C   0  0  0  0  0  0  0  0  0  0  0  0
   23.2403    0.7214   27.8510 C   0  0  0  0  0  0  0  0  0  0  0  0
   24.4777    0.0973   27.2093 C   0  0  0  0  0  0  0  0  0  0  0  0
   25.2665   -1.0057   21.1236 C   0  0  0  0  0  0  0  0  0  0  0  0
   25.0270   -1.2274   19.7442 C   0  0  0  0  0  0  0  0  0  0  0  0
   23.9720   -2.0255   19.3150 C   0  0  0  0  0  0  0  0  0  0  0  0
   23.1928   -2.6514   20.2652 C   0  0  0  0  0  0  0  0  0  0  0  0
   23.4394   -2.4684   21.6329 C   0  0  0  0  0  0  0  0  0  0  0  0
   24.4414   -1.6189   22.0575 C   0  0  0  0  0  0  0  0  0  0  0  0
   16.4399   -8.2142   24.5870 F   0  0  0  0  0  0  0  0  0  0  0  0
   30.9135   -2.3761   18.8854 H   0  0  0  0  0  0  0  0  0  0  0  0
   31.3607   -0.7828   18.2436 H   0  0  0  0  0  0  0  0  0  0  0  0
   31.0224   -0.9853   19.9684 H   0  0  0  0  0  0  0  0  0  0  0  0
   28.6371   -1.5111   19.4276 H   0  0  0  0  0  0  0  0  0  0  0  0
   27.9050   -3.0723   17.9162 H   0  0  0  0  0  0  0  0  0  0  0  0
   28.2225   -2.7776   16.1836 H   0  0  0  0  0  0  0  0  0  0  0  0
   29.5508   -3.2766   17.2567 H   0  0  0  0  0  0  0  0  0  0  0  0
   30.6510    3.2253   18.1495 H   0  0  0  0  0  0  0  0  0  0  0  0
   28.6756    4.2891   19.2620 H   0  0  0  0  0  0  0  0  0  0  0  0
   26.8548    2.7926   20.0905 H   0  0  0  0  0  0  0  0  0  0  0  0
   26.9388   -0.1495   17.2433 H   0  0  0  0  0  0  0  0  0  0  0  0
   25.5306   -1.2160   17.1405 H   0  0  0  0  0  0  0  0  0  0  0  0
   25.4727    1.8007   17.6613 H   0  0  0  0  0  0  0  0  0  0  0  0
   24.9403    0.9776   16.1925 H   0  0  0  0  0  0  0  0  0  0  0  0
   24.0485    0.7553   17.7037 H   0  0  0  0  0  0  0  0  0  0  0  0
   27.5437    1.3508   22.1753 H   0  0  0  0  0  0  0  0  0  0  0  0
   26.1143    0.8392   23.0835 H   0  0  0  0  0  0  0  0  0  0  0  0
   29.1905    1.1995   23.8865 H   0  0  0  0  0  0  0  0  0  0  0  0
   27.8008    1.0375   24.9645 H   0  0  0  0  0  0  0  0  0  0  0  0
   29.1389   -0.1101   25.0650 H   0  0  0  0  0  0  0  0  0  0  0  0
   28.4086   -1.8049   21.8023 H   0  0  0  0  0  0  0  0  0  0  0  0
   29.4606   -0.3944   21.9280 H   0  0  0  0  0  0  0  0  0  0  0  0
   29.5726   -1.6920   23.1232 H   0  0  0  0  0  0  0  0  0  0  0  0
   27.6689   -2.0078   24.8188 H   0  0  0  0  0  0  0  0  0  0  0  0
   26.6408   -2.2202   23.3920 H   0  0  0  0  0  0  0  0  0  0  0  0
   23.5043   -0.4524   25.3602 H   0  0  0  0  0  0  0  0  0  0  0  0
   23.6428   -2.5681   27.3720 H   0  0  0  0  0  0  0  0  0  0  0  0
   21.1385   -3.7345   26.5309 H   0  0  0  0  0  0  0  0  0  0  0  0
   18.4639   -2.6165   26.0202 H   0  0  0  0  0  0  0  0  0  0  0  0
   16.7780   -3.9038   26.2740 H   0  0  0  0  0  0  0  0  0  0  0  0
   17.2145   -5.3352   28.9356 H   0  0  0  0  0  0  0  0  0  0  0  0
   14.9446   -5.7443   28.0253 H   0  0  0  0  0  0  0  0  0  0  0  0
   14.8522   -4.6097   29.3723 H   0  0  0  0  0  0  0  0  0  0  0  0
   14.7407   -4.0229   27.7100 H   0  0  0  0  0  0  0  0  0  0  0  0
   16.6688   -2.3941   28.3228 H   0  0  0  0  0  0  0  0  0  0  0  0
   16.7485   -3.1159   29.9303 H   0  0  0  0  0  0  0  0  0  0  0  0
   18.1891   -3.0501   28.9194 H   0  0  0  0  0  0  0  0  0  0  0  0
   14.2202   -6.1687   23.2755 H   0  0  0  0  0  0  0  0  0  0  0  0
   15.7680   -6.6887   22.6043 H   0  0  0  0  0  0  0  0  0  0  0  0
   15.0727   -9.0314   22.5841 H   0  0  0  0  0  0  0  0  0  0  0  0
   13.8475   -8.0686   21.7201 H   0  0  0  0  0  0  0  0  0  0  0  0
    8.0200  -13.4700   25.5911 H   0  0  0  0  0  0  0  0  0  0  0  0
    9.3550  -14.2466   26.4352 H   0  0  0  0  0  0  0  0  0  0  0  0
    8.4402  -12.9656   27.2477 H   0  0  0  0  0  0  0  0  0  0  0  0
   11.4443  -13.2319   26.6074 H   0  0  0  0  0  0  0  0  0  0  0  0
   11.6652  -11.5508   26.1099 H   0  0  0  0  0  0  0  0  0  0  0  0
   10.7268  -11.9324   27.5772 H   0  0  0  0  0  0  0  0  0  0  0  0
    9.5345   -9.9418   27.1044 H   0  0  0  0  0  0  0  0  0  0  0  0
    8.3355   -9.2603   26.0039 H   0  0  0  0  0  0  0  0  0  0  0  0
    7.9352  -10.6918   26.9584 H   0  0  0  0  0  0  0  0  0  0  0  0
    7.1864  -11.6032   24.7563 H   0  0  0  0  0  0  0  0  0  0  0  0
    7.9195  -10.3914   23.7061 H   0  0  0  0  0  0  0  0  0  0  0  0
    8.3941  -12.0833   23.5455 H   0  0  0  0  0  0  0  0  0  0  0  0
   12.8328   -9.3207   25.5201 H   0  0  0  0  0  0  0  0  0  0  0  0
   14.4466   -9.7989   24.9331 H   0  0  0  0  0  0  0  0  0  0  0  0
   14.6585   -7.9693   26.5433 H   0  0  0  0  0  0  0  0  0  0  0  0
   13.5590   -6.9439   25.6014 H   0  0  0  0  0  0  0  0  0  0  0  0
   18.0138   -7.7154   26.1007 H   0  0  0  0  0  0  0  0  0  0  0  0
   18.1542   -6.8665   27.6260 H   0  0  0  0  0  0  0  0  0  0  0  0
   16.6815   -7.7918   27.2728 H   0  0  0  0  0  0  0  0  0  0  0  0
   20.1866   -1.7448   24.4082 H   0  0  0  0  0  0  0  0  0  0  0  0
   21.8902   -2.1371   24.7043 H   0  0  0  0  0  0  0  0  0  0  0  0
   19.7034   -4.0524   23.7674 H   0  0  0  0  0  0  0  0  0  0  0  0
   20.8347   -2.5705   22.0322 H   0  0  0  0  0  0  0  0  0  0  0  0
   21.1766   -4.3142   21.8182 H   0  0  0  0  0  0  0  0  0  0  0  0
   23.3912   -5.1319   22.4526 H   0  0  0  0  0  0  0  0  0  0  0  0
   24.4796   -4.0442   23.3567 H   0  0  0  0  0  0  0  0  0  0  0  0
   23.0559   -4.0086   25.2781 H   0  0  0  0  0  0  0  0  0  0  0  0
   23.1776   -5.7183   24.7940 H   0  0  0  0  0  0  0  0  0  0  0  0
   21.4418   -0.0018   28.8524 H   0  0  0  0  0  0  0  0  0  0  0  0
   22.9290   -0.8978   29.2512 H   0  0  0  0  0  0  0  0  0  0  0  0
   23.5299    1.4225   28.6321 H   0  0  0  0  0  0  0  0  0  0  0  0
   22.6629    1.2584   27.0974 H   0  0  0  0  0  0  0  0  0  0  0  0
   25.0916   -0.3831   27.9749 H   0  0  0  0  0  0  0  0  0  0  0  0
   25.0786    0.8535   26.7062 H   0  0  0  0  0  0  0  0  0  0  0  0
   23.7669   -2.1705   18.2654 H   0  0  0  0  0  0  0  0  0  0  0  0
   22.3832   -3.2932   19.9520 H   0  0  0  0  0  0  0  0  0  0  0  0
   24.5499   -1.4495   23.1126 H   0  0  0  0  0  0  0  0  0  0  0  0
  1  4  1  0  0  0  0
  3  4  1  0  0  0  0
  3  7  1  0  0  0  0
  2 10  4  0  0  0  0
  4 10  1  0  0  0  0
  8 11  1  0  0  0  0
  2 13  4  0  0  0  0
 13 16  4  0  0  0  0
 16 19  4  0  0  0  0
 10 22  4  0  0  0  0
 19 22  4  0  0  0  0
  5 25  1  0  0  0  0
 22 25  1  0  0  0  0
  5 27  1  0  0  0  0
 27 28  1  0  0  0  0
 25 29  2  0  0  0  0
 29 30  1  0  0  0  0
 30 31  1  0  0  0  0
 31 32  1  0  0  0  0
 31 33  1  0  0  0  0
  6 34  1  0  0  0  0
 31 34  1  0  0  0  0
  6 35  1  0  0  0  0
 24 35  2  0  0  0  0
  8 36  1  0  0  0  0
 35 36  1  0  0  0  0
 11 37  4  0  0  0  0
 21 37  2  0  0  0  0
 14 38  1  0  0  0  0
 37 38  1  0  0  0  0
 14 39  4  0  0  0  0
 15 39  2  0  0  0  0
 17 40  1  0  0  0  0
 39 40  1  0  0  0  0
 40 41  1  0  0  0  0
 41 42  1  0  0  0  0
 41 43  1  0  0  0  0
 12 44  2  0  0  0  0
 17 44  4  0  0  0  0
 44 45  1  0  0  0  0
 45 46  1  0  0  0  0
 20 47  1  0  0  0  0
 46 47  1  0  0  0  0
  9 48  2  0  0  0  0
 20 48  4  0  0  0  0
 48 49  1  0  0  0  0
 49 50  3  0  0  0  0
 23 51  1  0  0  0  0
 50 51  1  0  0  0  0
 23 52  1  0  0  0  0
 23 53  1  0  0  0  0
 51 54  1  0  0  0  0
 51 55  1  0  0  0  0
 20 56  1  0  0  0  0
 45 57  1  0  0  0  0
 56 57  1  0  0  0  0
 17 58  1  0  0  0  0
 38 59  1  0  0  0  0
 18 60  1  0  0  0  0
 59 60  1  0  0  0  0
 26 61  1  0  0  0  0
 60 61  1  0  0  0  0
 26 62  1  0  0  0  0
 18 63  1  0  0  0  0
 62 63  1  0  0  0  0
 11 64  1  0  0  0  0
 64 65  1  0  0  0  0
 36 66  1  0  0  0  0
 65 66  1  0  0  0  0
 29 67  4  0  0  0  0
  5 68  1  0  0  0  0
 67 68  4  0  0  0  0
 68 69  4  0  0  0  0
 69 70  4  0  0  0  0
 26 71  1  0  0  0  0
 70 71  4  0  0  0  0
 67 72  4  0  0  0  0
 71 72  4  0  0  0  0
 45 73  1  0  0  0  0
  1 74  1  0  0  0  0
  1 75  1  0  0  0  0
  1 76  1  0  0  0  0
  4 77  1  0  0  0  0
  7 78  1  0  0  0  0
  7 79  1  0  0  0  0
  7 80  1  0  0  0  0
 13 81  1  0  0  0  0
 16 82  1  0  0  0  0
 19 83  1  0  0  0  0
 27 84  1  0  0  0  0
 27 85  1  0  0  0  0
 28 86  1  0  0  0  0
 28 87  1  0  0  0  0
 28 88  1  0  0  0  0
 30 89  1  0  0  0  0
 30 90  1  0  0  0  0
 32 91  1  0  0  0  0
 32 92  1  0  0  0  0
 32 93  1  0  0  0  0
 33 94  1  0  0  0  0
 33 95  1  0  0  0  0
 33 96  1  0  0  0  0
 34 97  1  0  0  0  0
 34 98  1  0  0  0  0
 36 99  1  0  0  0  0
  8100  1  0  0  0  0
 38101  1  0  0  0  0
 14102  1  0  0  0  0
 40103  1  0  0  0  0
 41104  1  0  0  0  0
 42105  1  0  0  0  0
 42106  1  0  0  0  0
 42107  1  0  0  0  0
 43108  1  0  0  0  0
 43109  1  0  0  0  0
 43110  1  0  0  0  0
 46111  1  0  0  0  0
 46112  1  0  0  0  0
 47113  1  0  0  0  0
 47114  1  0  0  0  0
 52115  1  0  0  0  0
 52116  1  0  0  0  0
 52117  1  0  0  0  0
 53118  1  0  0  0  0
 53119  1  0  0  0  0
 53120  1  0  0  0  0
 54121  1  0  0  0  0
 54122  1  0  0  0  0
 54123  1  0  0  0  0
 55124  1  0  0  0  0
 55125  1  0  0  0  0
 55126  1  0  0  0  0
 56127  1  0  0  0  0
 56128  1  0  0  0  0
 57129  1  0  0  0  0
 57130  1  0  0  0  0
 58131  1  0  0  0  0
 58132  1  0  0  0  0
 58133  1  0  0  0  0
 59134  1  0  0  0  0
 59135  1  0  0  0  0
 60136  1  0  0  0  0
 61137  1  0  0  0  0
 61138  1  0  0  0  0
 62139  1  0  0  0  0
 62140  1  0  0  0  0
 63141  1  0  0  0  0
 63142  1  0  0  0  0
 64143  1  0  0  0  0
 64144  1  0  0  0  0
 65145  1  0  0  0  0
 65146  1  0  0  0  0
 66147  1  0  0  0  0
 66148  1  0  0  0  0
 69149  1  0  0  0  0
 70150  1  0  0  0  0
 72151  1  0  0  0  0
M  END
