truncated_ligand_noH
  PyMOL3.1          3D                             0

 26 26  0  0  1  0  0  0  0  0999 V2000
   12.4979   31.0639   60.5856 C   0  0  0  0  0  0  0  0  0  0  0  0
   13.9097   31.2717   60.7543 O   0  0  0  0  0  0  0  0  0  0  0  0
   14.3958   32.3831   60.1317 C   0  0  0  0  0  0  0  0  0  0  0  0
   15.9045   32.5022   60.3713 C   0  0  1  0  0  0  0  0  0  0  0  0
   16.4144   33.7015   59.6838 N   0  0  0  0  0  0  0  0  0  0  0  0
   17.8169   33.8076   59.8112 N   0  0  0  0  0  0  0  0  0  0  0  0
   18.7043   33.9629   58.7398 C   0  0  0  0  0  0  0  0  0  0  0  0
   18.1993   33.5838   57.3282 C   0  0  1  0  0  0  0  0  0  0  0  0
   19.0146   34.2708   56.3365 N   0  0  0  0  0  0  0  0  0  0  0  0
   18.7074   35.5125   55.8270 C   0  0  0  0  0  0  0  0  0  0  0  0
   19.7158   35.9743   54.7399 C   0  0  2  0  0  0  0  0  0  0  0  0
   19.6738   37.5030   54.4839 C   0  0  0  0  0  0  0  0  0  0  0  0
   20.5650   37.8951   53.2979 C   0  0  0  0  0  0  0  0  0  0  0  0
   20.1415   38.2792   55.7238 C   0  0  0  0  0  0  0  0  0  0  0  0
   19.4622   35.1368   53.5309 N   0  0  0  0  0  0  0  0  0  0  0  0
   20.0754   33.8718   53.5138 C   0  0  0  0  0  0  0  0  0  0  0  0
   19.7752   32.8978   52.3521 C   0  0  0  0  0  0  0  0  0  0  0  0
   20.9125   33.5685   54.3742 O   0  0  0  0  0  0  0  0  0  0  0  0
   18.2063   35.3576   52.8193 C   0  0  0  0  0  0  0  0  0  0  0  0
   17.7033   36.1411   56.1427 O   0  0  0  0  0  0  0  0  0  0  0  0
   18.3441   32.0605   57.1502 C   0  0  0  0  0  0  0  0  0  0  0  0
   19.8883   34.2705   58.9196 O   0  0  0  0  0  0  0  0  0  0  0  0
   18.2651   34.0119   61.1924 C   0  0  0  0  0  0  0  0  0  0  0  0
   17.7402   32.8781   62.0783 C   0  0  0  0  0  0  0  0  0  0  0  0
   16.2395   32.6319   61.8642 C   0  0  0  0  0  0  0  0  0  0  0  0
   13.7348   33.1287   59.4197 O   0  0  0  0  0  0  0  0  0  0  0  0
  1  2  1  0  0  0  0
  2  3  1  0  0  0  0
  3  4  1  0  0  0  0
  4  5  1  0  0  0  0
  5  6  1  0  0  0  0
  6  7  1  0  0  0  0
  6 23  1  0  0  0  0
  7  8  1  0  0  0  0
  8 21  1  0  0  0  0
  8  9  1  0  0  0  0
  9 10  1  0  0  0  0
 10 11  1  0  0  0  0
 11 12  1  0  0  0  0
 12 13  1  0  0  0  0
 12 14  1  0  0  0  0
 11 15  1  0  0  0  0
 15 16  1  0  0  0  0
 15 19  1  0  0  0  0
 16 17  1  0  0  0  0
 16 18  2  0  0  0  0
 10 20  2  0  0  0  0
  7 22  2  0  0  0  0
 23 24  1  0  0  0  0
  4 25  1  0  0  0  0
 24 25  1  0  0  0  0
  3 26  2  0  0  0  0
M  END
$$$$
