 xtb: 6.7.1 (edcfbbe)
          09282515333D

151157  0     0  0            999 V2000
    9.3410   14.9614   24.0963 C   0  0  0  0  0  0  0  0  0  0  0  0
   10.9124   12.6543   24.1674 N   0  0  0  0  0  0  0  0  0  0  0  0
    9.5300   14.0327   21.8309 O   0  0  0  0  0  0  0  0  0  0  0  0
   10.2482   14.6130   22.9172 C   0  0  0  0  0  0  0  0  0  0  0  0
   12.6622   14.7951   20.5821 N   0  0  0  0  0  0  0  0  0  0  0  0
   15.9130   18.5092   23.5866 O   0  0  0  0  0  0  0  0  0  0  0  0
    8.7575   14.9440   21.0802 C   0  0  0  0  0  0  0  0  0  0  0  0
   18.3444   20.6935   22.1225 N   0  0  0  0  0  0  0  0  0  0  0  0
   26.4932   17.0904   13.7778 O   0  0  0  0  0  0  0  0  0  0  0  0
   11.2974   13.5913   23.3149 C   0  0  0  0  0  0  0  0  0  0  0  0
   19.7396   20.6789   21.9938 N   0  0  0  0  0  0  0  0  0  0  0  0
   22.7508   19.8475   16.7774 O   0  0  0  0  0  0  0  0  0  0  0  0
   11.7720   11.7222   24.5386 C   0  0  0  0  0  0  0  0  0  0  0  0
   20.4052   21.1208   18.4413 N   0  0  0  0  0  0  0  0  0  0  0  0
   19.6353   23.1557   17.8277 O   0  0  0  0  0  0  0  0  0  0  0  0
   13.0781   11.6678   24.0767 C   0  0  0  0  0  0  0  0  0  0  0  0
   21.3054   21.1690   15.6721 N   0  0  0  0  0  0  0  0  0  0  0  0
   16.9726   21.5194   18.3287 O   0  0  0  0  0  0  0  0  0  0  0  0
   13.4927   12.6463   23.1929 C   0  0  0  0  0  0  0  0  0  0  0  0
   24.8514   18.6230   14.1022 N   0  0  0  0  0  0  0  0  0  0  0  0
   21.5698   20.5710   20.7016 O   0  0  0  0  0  0  0  0  0  0  0  0
   12.5963   13.6350   22.7895 C   0  0  0  0  0  0  0  0  0  0  0  0
   28.3860   19.7088    9.7057 N   0  0  0  0  0  0  0  0  0  0  0  0
   15.7209   20.6625   22.9910 O   0  0  0  0  0  0  0  0  0  0  0  0
   13.0711   14.6945   21.8927 C   0  0  0  0  0  0  0  0  0  0  0  0
   15.6928   19.1673   19.1246 N   0  0  0  0  0  0  0  0  0  0  0  0
   11.9026   13.8123   19.8519 C   0  0  0  0  0  0  0  0  0  0  0  0
   12.8178   12.8321   19.1213 C   0  0  0  0  0  0  0  0  0  0  0  0
   13.9828   15.6811   22.1921 C   0  0  0  0  0  0  0  0  0  0  0  0
   14.7011   15.8768   23.4890 C   0  0  0  0  0  0  0  0  0  0  0  0
   14.1819   17.0138   24.3985 C   0  0  0  0  0  0  0  0  0  0  0  0
   14.8678   16.8916   25.7624 C   0  0  0  0  0  0  0  0  0  0  0  0
   12.6673   16.9067   24.5693 C   0  0  0  0  0  0  0  0  0  0  0  0
   14.4996   18.3923   23.8061 C   0  0  0  0  0  0  0  0  0  0  0  0
   16.3868   19.6649   23.1597 C   0  0  0  0  0  0  0  0  0  0  0  0
   17.8923   19.5826   22.9565 C   0  0  0  0  0  0  0  0  0  0  0  0
   20.3489   20.6839   20.7981 C   0  0  0  0  0  0  0  0  0  0  0  0
   19.4973   20.9222   19.5519 C   0  0  0  0  0  0  0  0  0  0  0  0
   20.4347   22.2406   17.7065 C   0  0  0  0  0  0  0  0  0  0  0  0
   21.5531   22.2249   16.6545 C   0  0  0  0  0  0  0  0  0  0  0  0
   21.7584   23.6099   16.0190 C   0  0  0  0  0  0  0  0  0  0  0  0
   22.6840   23.5428   14.8052 C   0  0  0  0  0  0  0  0  0  0  0  0
   22.3522   24.5444   17.0724 C   0  0  0  0  0  0  0  0  0  0  0  0
   22.0089   20.0312   15.8132 C   0  0  0  0  0  0  0  0  0  0  0  0
   22.0402   19.0165   14.6527 C   0  0  0  0  0  0  0  0  0  0  0  0
   22.7535   17.7157   15.0262 C   0  0  0  0  0  0  0  0  0  0  0  0
   24.2598   17.9006   15.2066 C   0  0  0  0  0  0  0  0  0  0  0  0
   25.9745   18.1775   13.5153 C   0  0  0  0  0  0  0  0  0  0  0  0
   26.5723   19.0642   12.5509 C   0  0  0  0  0  0  0  0  0  0  0  0
   27.2207   19.6993   11.7597 C   0  0  0  0  0  0  0  0  0  0  0  0
   27.9841   20.5441   10.8459 C   0  0  0  0  0  0  0  0  0  0  0  0
   29.1097   18.5085   10.0755 C   0  0  0  0  0  0  0  0  0  0  0  0
   29.0757   20.4067    8.6418 C   0  0  0  0  0  0  0  0  0  0  0  0
   27.0587   21.6777   10.3766 C   0  0  0  0  0  0  0  0  0  0  0  0
   29.1579   21.1356   11.6558 C   0  0  0  0  0  0  0  0  0  0  0  0
   24.2218   19.8833   13.7937 C   0  0  0  0  0  0  0  0  0  0  0  0
   22.7485   19.6548   13.4517 C   0  0  0  0  0  0  0  0  0  0  0  0
   20.1393   21.3497   14.8323 C   0  0  0  0  0  0  0  0  0  0  0  0
   18.5051   19.8038   19.2213 C   0  0  0  0  0  0  0  0  0  0  0  0
   17.5555   20.2483   18.0946 C   0  0  0  0  0  0  0  0  0  0  0  0
   16.4469   19.2067   17.8962 C   0  0  0  0  0  0  0  0  0  0  0  0
   15.0402   20.4402   19.3714 C   0  0  0  0  0  0  0  0  0  0  0  0
   16.0990   21.5391   19.4470 C   0  0  0  0  0  0  0  0  0  0  0  0
   20.5115   20.6789   23.2306 C   0  0  0  0  0  0  0  0  0  0  0  0
   20.0926   19.5129   24.1201 C   0  0  0  0  0  0  0  0  0  0  0  0
   18.5819   19.5602   24.3325 C   0  0  0  0  0  0  0  0  0  0  0  0
   14.1541   16.4339   20.9948 C   0  0  0  0  0  0  0  0  0  0  0  0
   13.3218   15.8464   20.0082 C   0  0  0  0  0  0  0  0  0  0  0  0
   13.2766   16.3416   18.7093 C   0  0  0  0  0  0  0  0  0  0  0  0
   14.0509   17.4398   18.4016 C   0  0  0  0  0  0  0  0  0  0  0  0
   14.8793   18.0295   19.3654 C   0  0  0  0  0  0  0  0  0  0  0  0
   14.9485   17.5194   20.6449 C   0  0  0  0  0  0  0  0  0  0  0  0
   20.7338   18.6505   14.2714 F   0  0  0  0  0  0  0  0  0  0  0  0
    8.6215   15.7238   23.8120 H   0  0  0  0  0  0  0  0  0  0  0  0
    8.8167   14.0668   24.4167 H   0  0  0  0  0  0  0  0  0  0  0  0
    9.9416   15.3369   24.9188 H   0  0  0  0  0  0  0  0  0  0  0  0
   10.7562   15.5224   22.5543 H   0  0  0  0  0  0  0  0  0  0  0  0
    7.9049   15.3210   21.6513 H   0  0  0  0  0  0  0  0  0  0  0  0
    9.3704   15.7883   20.7439 H   0  0  0  0  0  0  0  0  0  0  0  0
    8.3960   14.3852   20.2190 H   0  0  0  0  0  0  0  0  0  0  0  0
   11.3918   10.9933   25.2400 H   0  0  0  0  0  0  0  0  0  0  0  0
   13.7474   10.8884   24.4020 H   0  0  0  0  0  0  0  0  0  0  0  0
   14.5007   12.6526   22.8041 H   0  0  0  0  0  0  0  0  0  0  0  0
   11.2584   13.2764   20.5513 H   0  0  0  0  0  0  0  0  0  0  0  0
   11.2663   14.3363   19.1335 H   0  0  0  0  0  0  0  0  0  0  0  0
   13.4322   12.2862   19.8349 H   0  0  0  0  0  0  0  0  0  0  0  0
   12.2210   12.1216   18.5575 H   0  0  0  0  0  0  0  0  0  0  0  0
   13.4747   13.3634   18.4358 H   0  0  0  0  0  0  0  0  0  0  0  0
   14.6311   14.9491   24.0597 H   0  0  0  0  0  0  0  0  0  0  0  0
   15.7550   16.0690   23.2788 H   0  0  0  0  0  0  0  0  0  0  0  0
   15.9463   16.9510   25.6462 H   0  0  0  0  0  0  0  0  0  0  0  0
   14.5446   17.6925   26.4226 H   0  0  0  0  0  0  0  0  0  0  0  0
   14.6181   15.9417   26.2267 H   0  0  0  0  0  0  0  0  0  0  0  0
   12.4008   15.8954   24.8675 H   0  0  0  0  0  0  0  0  0  0  0  0
   12.3144   17.6011   25.3286 H   0  0  0  0  0  0  0  0  0  0  0  0
   12.1622   17.1329   23.6336 H   0  0  0  0  0  0  0  0  0  0  0  0
   14.1829   19.1908   24.4841 H   0  0  0  0  0  0  0  0  0  0  0  0
   13.9864   18.5343   22.8510 H   0  0  0  0  0  0  0  0  0  0  0  0
   18.1204   18.6513   22.4263 H   0  0  0  0  0  0  0  0  0  0  0  0
   18.0325   21.5739   22.5349 H   0  0  0  0  0  0  0  0  0  0  0  0
   18.9434   21.8593   19.6753 H   0  0  0  0  0  0  0  0  0  0  0  0
   21.1845   20.4748   18.3919 H   0  0  0  0  0  0  0  0  0  0  0  0
   22.4764   21.9390   17.1732 H   0  0  0  0  0  0  0  0  0  0  0  0
   20.7824   24.0129   15.7316 H   0  0  0  0  0  0  0  0  0  0  0  0
   22.9019   24.5479   14.4597 H   0  0  0  0  0  0  0  0  0  0  0  0
   23.6202   23.0588   15.0728 H   0  0  0  0  0  0  0  0  0  0  0  0
   22.2356   22.9929   13.9843 H   0  0  0  0  0  0  0  0  0  0  0  0
   23.3352   24.1954   17.3818 H   0  0  0  0  0  0  0  0  0  0  0  0
   22.4472   25.5478   16.6683 H   0  0  0  0  0  0  0  0  0  0  0  0
   21.7073   24.5879   17.9468 H   0  0  0  0  0  0  0  0  0  0  0  0
   22.3378   17.3202   15.9527 H   0  0  0  0  0  0  0  0  0  0  0  0
   22.5558   17.0020   14.2242 H   0  0  0  0  0  0  0  0  0  0  0  0
   24.7521   16.9284   15.2724 H   0  0  0  0  0  0  0  0  0  0  0  0
   24.4408   18.4566   16.1327 H   0  0  0  0  0  0  0  0  0  0  0  0
   29.0778   17.8183    9.2354 H   0  0  0  0  0  0  0  0  0  0  0  0
   30.1643   18.6975   10.3229 H   0  0  0  0  0  0  0  0  0  0  0  0
   28.6325   18.0328   10.9279 H   0  0  0  0  0  0  0  0  0  0  0  0
   29.1965   19.7092    7.8134 H   0  0  0  0  0  0  0  0  0  0  0  0
   28.4808   21.2452    8.2925 H   0  0  0  0  0  0  0  0  0  0  0  0
   30.0747   20.7646    8.9318 H   0  0  0  0  0  0  0  0  0  0  0  0
   26.5243   22.0872   11.2306 H   0  0  0  0  0  0  0  0  0  0  0  0
   27.6336   22.4780    9.9197 H   0  0  0  0  0  0  0  0  0  0  0  0
   26.3393   21.2925    9.6593 H   0  0  0  0  0  0  0  0  0  0  0  0
   28.7707   21.7253   12.4822 H   0  0  0  0  0  0  0  0  0  0  0  0
   29.7813   20.3429   12.0615 H   0  0  0  0  0  0  0  0  0  0  0  0
   29.7623   21.7776   11.0207 H   0  0  0  0  0  0  0  0  0  0  0  0
   24.3010   20.5434   14.6656 H   0  0  0  0  0  0  0  0  0  0  0  0
   24.7373   20.3423   12.9496 H   0  0  0  0  0  0  0  0  0  0  0  0
   22.6672   18.9718   12.6044 H   0  0  0  0  0  0  0  0  0  0  0  0
   22.2835   20.6010   13.1849 H   0  0  0  0  0  0  0  0  0  0  0  0
   20.0985   22.3773   14.4827 H   0  0  0  0  0  0  0  0  0  0  0  0
   20.1481   20.6843   13.9782 H   0  0  0  0  0  0  0  0  0  0  0  0
   19.2326   21.1585   15.4134 H   0  0  0  0  0  0  0  0  0  0  0  0
   19.0444   18.9148   18.8963 H   0  0  0  0  0  0  0  0  0  0  0  0
   17.9095   19.5621   20.0973 H   0  0  0  0  0  0  0  0  0  0  0  0
   18.1180   20.3818   17.1644 H   0  0  0  0  0  0  0  0  0  0  0  0
   16.8811   18.2251   17.7146 H   0  0  0  0  0  0  0  0  0  0  0  0
   15.8412   19.5016   17.0204 H   0  0  0  0  0  0  0  0  0  0  0  0
   14.3131   20.6811   18.5739 H   0  0  0  0  0  0  0  0  0  0  0  0
   14.5157   20.3954   20.3246 H   0  0  0  0  0  0  0  0  0  0  0  0
   16.6650   21.4354   20.3786 H   0  0  0  0  0  0  0  0  0  0  0  0
   15.6288   22.5229   19.4215 H   0  0  0  0  0  0  0  0  0  0  0  0
   21.5634   20.6164   22.9540 H   0  0  0  0  0  0  0  0  0  0  0  0
   20.3295   21.6290   23.7458 H   0  0  0  0  0  0  0  0  0  0  0  0
   20.6143   19.5831   25.0732 H   0  0  0  0  0  0  0  0  0  0  0  0
   20.3691   18.5714   23.6424 H   0  0  0  0  0  0  0  0  0  0  0  0
   18.3096   20.4624   24.8854 H   0  0  0  0  0  0  0  0  0  0  0  0
   18.2427   18.6929   24.8967 H   0  0  0  0  0  0  0  0  0  0  0  0
   12.6485   15.8872   17.9581 H   0  0  0  0  0  0  0  0  0  0  0  0
   14.0257   17.8530   17.4040 H   0  0  0  0  0  0  0  0  0  0  0  0
   15.6383   17.9709   21.3355 H   0  0  0  0  0  0  0  0  0  0  0  0
  1  4  1  0  0  0  0
  3  4  1  0  0  0  0
  3  7  1  0  0  0  0
  2 10  4  0  0  0  0
  4 10  1  0  0  0  0
  8 11  1  0  0  0  0
  2 13  4  0  0  0  0
 13 16  4  0  0  0  0
 16 19  4  0  0  0  0
 10 22  4  0  0  0  0
 19 22  4  0  0  0  0
  5 25  1  0  0  0  0
 22 25  1  0  0  0  0
  5 27  1  0  0  0  0
 27 28  1  0  0  0  0
 25 29  2  0  0  0  0
 29 30  1  0  0  0  0
 30 31  1  0  0  0  0
 31 32  1  0  0  0  0
 31 33  1  0  0  0  0
  6 34  1  0  0  0  0
 31 34  1  0  0  0  0
  6 35  1  0  0  0  0
 24 35  2  0  0  0  0
  8 36  1  0  0  0  0
 35 36  1  0  0  0  0
 11 37  4  0  0  0  0
 21 37  2  0  0  0  0
 14 38  1  0  0  0  0
 37 38  1  0  0  0  0
 14 39  4  0  0  0  0
 15 39  2  0  0  0  0
 17 40  1  0  0  0  0
 39 40  1  0  0  0  0
 40 41  1  0  0  0  0
 41 42  1  0  0  0  0
 41 43  1  0  0  0  0
 12 44  2  0  0  0  0
 17 44  4  0  0  0  0
 44 45  1  0  0  0  0
 45 46  1  0  0  0  0
 20 47  1  0  0  0  0
 46 47  1  0  0  0  0
  9 48  2  0  0  0  0
 20 48  4  0  0  0  0
 48 49  1  0  0  0  0
 49 50  3  0  0  0  0
 23 51  1  0  0  0  0
 50 51  1  0  0  0  0
 23 52  1  0  0  0  0
 23 53  1  0  0  0  0
 51 54  1  0  0  0  0
 51 55  1  0  0  0  0
 20 56  1  0  0  0  0
 45 57  1  0  0  0  0
 56 57  1  0  0  0  0
 17 58  1  0  0  0  0
 38 59  1  0  0  0  0
 18 60  1  0  0  0  0
 59 60  1  0  0  0  0
 26 61  1  0  0  0  0
 60 61  1  0  0  0  0
 26 62  1  0  0  0  0
 18 63  1  0  0  0  0
 62 63  1  0  0  0  0
 11 64  1  0  0  0  0
 64 65  1  0  0  0  0
 36 66  1  0  0  0  0
 65 66  1  0  0  0  0
 29 67  4  0  0  0  0
  5 68  1  0  0  0  0
 67 68  4  0  0  0  0
 68 69  4  0  0  0  0
 69 70  4  0  0  0  0
 26 71  1  0  0  0  0
 70 71  4  0  0  0  0
 67 72  4  0  0  0  0
 71 72  4  0  0  0  0
 45 73  1  0  0  0  0
  1 74  1  0  0  0  0
  1 75  1  0  0  0  0
  1 76  1  0  0  0  0
  4 77  1  0  0  0  0
  7 78  1  0  0  0  0
  7 79  1  0  0  0  0
  7 80  1  0  0  0  0
 13 81  1  0  0  0  0
 16 82  1  0  0  0  0
 19 83  1  0  0  0  0
 27 84  1  0  0  0  0
 27 85  1  0  0  0  0
 28 86  1  0  0  0  0
 28 87  1  0  0  0  0
 28 88  1  0  0  0  0
 30 89  1  0  0  0  0
 30 90  1  0  0  0  0
 32 91  1  0  0  0  0
 32 92  1  0  0  0  0
 32 93  1  0  0  0  0
 33 94  1  0  0  0  0
 33 95  1  0  0  0  0
 33 96  1  0  0  0  0
 34 97  1  0  0  0  0
 34 98  1  0  0  0  0
 36 99  1  0  0  0  0
  8100  1  0  0  0  0
 38101  1  0  0  0  0
 14102  1  0  0  0  0
 40103  1  0  0  0  0
 41104  1  0  0  0  0
 42105  1  0  0  0  0
 42106  1  0  0  0  0
 42107  1  0  0  0  0
 43108  1  0  0  0  0
 43109  1  0  0  0  0
 43110  1  0  0  0  0
 46111  1  0  0  0  0
 46112  1  0  0  0  0
 47113  1  0  0  0  0
 47114  1  0  0  0  0
 52115  1  0  0  0  0
 52116  1  0  0  0  0
 52117  1  0  0  0  0
 53118  1  0  0  0  0
 53119  1  0  0  0  0
 53120  1  0  0  0  0
 54121  1  0  0  0  0
 54122  1  0  0  0  0
 54123  1  0  0  0  0
 55124  1  0  0  0  0
 55125  1  0  0  0  0
 55126  1  0  0  0  0
 56127  1  0  0  0  0
 56128  1  0  0  0  0
 57129  1  0  0  0  0
 57130  1  0  0  0  0
 58131  1  0  0  0  0
 58132  1  0  0  0  0
 58133  1  0  0  0  0
 59134  1  0  0  0  0
 59135  1  0  0  0  0
 60136  1  0  0  0  0
 61137  1  0  0  0  0
 61138  1  0  0  0  0
 62139  1  0  0  0  0
 62140  1  0  0  0  0
 63141  1  0  0  0  0
 63142  1  0  0  0  0
 64143  1  0  0  0  0
 64144  1  0  0  0  0
 65145  1  0  0  0  0
 65146  1  0  0  0  0
 66147  1  0  0  0  0
 66148  1  0  0  0  0
 69149  1  0  0  0  0
 70150  1  0  0  0  0
 72151  1  0  0  0  0
M  END
