 xtb: 6.7.1 (edcfbbe)
          09282520253D

151157  0     0  0            999 V2000
    9.9045   16.3255   21.2882 C   0  0  0  0  0  0  0  0  0  0  0  0
   10.6338   14.1442   22.9478 N   0  0  0  0  0  0  0  0  0  0  0  0
   10.7765   14.3780   20.0622 O   0  0  0  0  0  0  0  0  0  0  0  0
   11.1013   15.4269   20.9752 C   0  0  0  0  0  0  0  0  0  0  0  0
   14.3667   14.9692   20.5960 N   0  0  0  0  0  0  0  0  0  0  0  0
   16.0055   19.7770   23.3212 O   0  0  0  0  0  0  0  0  0  0  0  0
   10.5366   14.7948   18.7350 C   0  0  0  0  0  0  0  0  0  0  0  0
   18.5964   22.0765   22.5361 N   0  0  0  0  0  0  0  0  0  0  0  0
   26.6626   17.4093   13.6466 O   0  0  0  0  0  0  0  0  0  0  0  0
   11.5847   14.7332   22.2349 C   0  0  0  0  0  0  0  0  0  0  0  0
   19.6771   22.7281   23.1374 N   0  0  0  0  0  0  0  0  0  0  0  0
   25.1615   22.3408   17.5248 O   0  0  0  0  0  0  0  0  0  0  0  0
   10.9526   13.4966   24.0528 C   0  0  0  0  0  0  0  0  0  0  0  0
   22.0510   22.0034   20.5430 N   0  0  0  0  0  0  0  0  0  0  0  0
   20.9999   23.9186   20.0472 O   0  0  0  0  0  0  0  0  0  0  0  0
   12.2533   13.3992   24.5232 C   0  0  0  0  0  0  0  0  0  0  0  0
   22.9390   22.2048   17.8453 N   0  0  0  0  0  0  0  0  0  0  0  0
   21.5971   19.1531   19.9460 O   0  0  0  0  0  0  0  0  0  0  0  0
   13.2505   14.0114   23.7891 C   0  0  0  0  0  0  0  0  0  0  0  0
   24.9170   18.5491   14.5450 N   0  0  0  0  0  0  0  0  0  0  0  0
   21.8798   23.2106   23.0744 O   0  0  0  0  0  0  0  0  0  0  0  0
   12.9340   14.6982   22.6147 C   0  0  0  0  0  0  0  0  0  0  0  0
   24.9492   18.4822    8.8021 N   0  0  0  0  0  0  0  0  0  0  0  0
   16.0774   21.4303   21.8148 O   0  0  0  0  0  0  0  0  0  0  0  0
   14.0312   15.3359   21.8813 C   0  0  0  0  0  0  0  0  0  0  0  0
   19.0525   17.8755   20.0327 N   0  0  0  0  0  0  0  0  0  0  0  0
   13.9129   13.7868   19.9065 C   0  0  0  0  0  0  0  0  0  0  0  0
   14.8160   12.5933   20.2146 C   0  0  0  0  0  0  0  0  0  0  0  0
   14.9098   16.2906   22.3497 C   0  0  0  0  0  0  0  0  0  0  0  0
   14.8830   16.9868   23.6724 C   0  0  0  0  0  0  0  0  0  0  0  0
   14.0850   18.3099   23.6934 C   0  0  0  0  0  0  0  0  0  0  0  0
   14.0320   18.8349   25.1297 C   0  0  0  0  0  0  0  0  0  0  0  0
   12.6641   18.0807   23.1785 C   0  0  0  0  0  0  0  0  0  0  0  0
   14.7360   19.3612   22.7894 C   0  0  0  0  0  0  0  0  0  0  0  0
   16.5520   20.8369   22.7586 C   0  0  0  0  0  0  0  0  0  0  0  0
   17.8171   21.2832   23.4732 C   0  0  0  0  0  0  0  0  0  0  0  0
   20.9127   22.6110   22.6235 C   0  0  0  0  0  0  0  0  0  0  0  0
   21.0159   21.6078   21.4705 C   0  0  0  0  0  0  0  0  0  0  0  0
   21.9273   23.1425   19.8508 C   0  0  0  0  0  0  0  0  0  0  0  0
   23.0120   23.3299   18.7810 C   0  0  0  0  0  0  0  0  0  0  0  0
   23.0017   24.6945   18.0569 C   0  0  0  0  0  0  0  0  0  0  0  0
   23.2495   25.8113   19.0689 C   0  0  0  0  0  0  0  0  0  0  0  0
   21.7241   24.9616   17.2649 C   0  0  0  0  0  0  0  0  0  0  0  0
   24.0943   21.7566   17.3369 C   0  0  0  0  0  0  0  0  0  0  0  0
   24.0975   20.4468   16.5305 C   0  0  0  0  0  0  0  0  0  0  0  0
   25.4672   19.7670   16.6088 C   0  0  0  0  0  0  0  0  0  0  0  0
   25.4088   18.4146   15.8986 C   0  0  0  0  0  0  0  0  0  0  0  0
   25.5875   17.9976   13.5167 C   0  0  0  0  0  0  0  0  0  0  0  0
   24.9573   18.1420   12.2304 C   0  0  0  0  0  0  0  0  0  0  0  0
   24.5212   18.1933   11.1092 C   0  0  0  0  0  0  0  0  0  0  0  0
   23.8856   18.3479    9.8037 C   0  0  0  0  0  0  0  0  0  0  0  0
   25.8877   19.5501    9.0800 C   0  0  0  0  0  0  0  0  0  0  0  0
   24.5034   18.5407    7.4262 C   0  0  0  0  0  0  0  0  0  0  0  0
   23.0708   17.0675    9.5520 C   0  0  0  0  0  0  0  0  0  0  0  0
   22.9290   19.5575    9.8973 C   0  0  0  0  0  0  0  0  0  0  0  0
   23.6505   19.2301   14.4100 C   0  0  0  0  0  0  0  0  0  0  0  0
   23.7211   20.6168   15.0563 C   0  0  0  0  0  0  0  0  0  0  0  0
   21.6248   21.6349   17.6031 C   0  0  0  0  0  0  0  0  0  0  0  0
   21.2785   20.2238   22.0669 C   0  0  0  0  0  0  0  0  0  0  0  0
   20.8743   19.0592   21.1610 C   0  0  0  0  0  0  0  0  0  0  0  0
   19.3592   18.9933   20.9037 C   0  0  0  0  0  0  0  0  0  0  0  0
   19.7953   18.0005   18.7960 C   0  0  0  0  0  0  0  0  0  0  0  0
   21.2870   18.0479   19.1232 C   0  0  0  0  0  0  0  0  0  0  0  0
   19.3853   23.5530   24.2972 C   0  0  0  0  0  0  0  0  0  0  0  0
   18.6794   22.6941   25.3460 C   0  0  0  0  0  0  0  0  0  0  0  0
   17.4224   22.0760   24.7359 C   0  0  0  0  0  0  0  0  0  0  0  0
   15.8672   16.5029   21.3122 C   0  0  0  0  0  0  0  0  0  0  0  0
   15.4993   15.6563   20.2445 C   0  0  0  0  0  0  0  0  0  0  0  0
   16.2559   15.6325   19.0830 C   0  0  0  0  0  0  0  0  0  0  0  0
   17.3843   16.4168   19.0173 C   0  0  0  0  0  0  0  0  0  0  0  0
   17.8197   17.2276   20.0900 C   0  0  0  0  0  0  0  0  0  0  0  0
   17.0247   17.2766   21.2302 C   0  0  0  0  0  0  0  0  0  0  0  0
   23.1819   19.5684   17.1178 F   0  0  0  0  0  0  0  0  0  0  0  0
    9.5669   16.8419   20.3939 H   0  0  0  0  0  0  0  0  0  0  0  0
    9.0985   15.7134   21.6821 H   0  0  0  0  0  0  0  0  0  0  0  0
   10.1904   17.0631   22.0314 H   0  0  0  0  0  0  0  0  0  0  0  0
   11.9178   16.0289   20.5437 H   0  0  0  0  0  0  0  0  0  0  0  0
   10.4336   13.8805   18.1545 H   0  0  0  0  0  0  0  0  0  0  0  0
    9.6179   15.3808   18.6516 H   0  0  0  0  0  0  0  0  0  0  0  0
   11.3791   15.3838   18.3541 H   0  0  0  0  0  0  0  0  0  0  0  0
   10.1251   13.0403   24.5787 H   0  0  0  0  0  0  0  0  0  0  0  0
   12.4767   12.8577   25.4281 H   0  0  0  0  0  0  0  0  0  0  0  0
   14.2834   13.9506   24.1003 H   0  0  0  0  0  0  0  0  0  0  0  0
   12.8873   13.5655   20.2069 H   0  0  0  0  0  0  0  0  0  0  0  0
   13.9214   13.9940   18.8332 H   0  0  0  0  0  0  0  0  0  0  0  0
   14.7775   12.3592   21.2762 H   0  0  0  0  0  0  0  0  0  0  0  0
   14.4885   11.7237   19.6530 H   0  0  0  0  0  0  0  0  0  0  0  0
   15.8450   12.8215   19.9471 H   0  0  0  0  0  0  0  0  0  0  0  0
   14.4391   16.3281   24.4204 H   0  0  0  0  0  0  0  0  0  0  0  0
   15.9093   17.2037   23.9744 H   0  0  0  0  0  0  0  0  0  0  0  0
   13.5043   18.1293   25.7656 H   0  0  0  0  0  0  0  0  0  0  0  0
   15.0362   18.9736   25.5211 H   0  0  0  0  0  0  0  0  0  0  0  0
   13.5102   19.7881   25.1660 H   0  0  0  0  0  0  0  0  0  0  0  0
   12.6813   17.8024   22.1281 H   0  0  0  0  0  0  0  0  0  0  0  0
   12.1891   17.2804   23.7392 H   0  0  0  0  0  0  0  0  0  0  0  0
   12.0686   18.9833   23.2875 H   0  0  0  0  0  0  0  0  0  0  0  0
   14.0983   20.2478   22.7142 H   0  0  0  0  0  0  0  0  0  0  0  0
   14.8940   18.9699   21.7807 H   0  0  0  0  0  0  0  0  0  0  0  0
   18.4035   20.4061   23.7642 H   0  0  0  0  0  0  0  0  0  0  0  0
   17.9826   22.7489   22.0732 H   0  0  0  0  0  0  0  0  0  0  0  0
   20.0577   21.6334   20.9431 H   0  0  0  0  0  0  0  0  0  0  0  0
   22.8203   21.3692   20.3878 H   0  0  0  0  0  0  0  0  0  0  0  0
   23.9872   23.2556   19.2816 H   0  0  0  0  0  0  0  0  0  0  0  0
   23.8478   24.6656   17.3595 H   0  0  0  0  0  0  0  0  0  0  0  0
   23.3073   26.7696   18.5602 H   0  0  0  0  0  0  0  0  0  0  0  0
   22.4378   25.8494   19.7911 H   0  0  0  0  0  0  0  0  0  0  0  0
   24.1823   25.6470   19.6037 H   0  0  0  0  0  0  0  0  0  0  0  0
   21.7729   25.9565   16.8287 H   0  0  0  0  0  0  0  0  0  0  0  0
   21.6039   24.2445   16.4575 H   0  0  0  0  0  0  0  0  0  0  0  0
   20.8607   24.9207   17.9237 H   0  0  0  0  0  0  0  0  0  0  0  0
   26.2076   20.4236   16.1550 H   0  0  0  0  0  0  0  0  0  0  0  0
   25.7418   19.6163   17.6530 H   0  0  0  0  0  0  0  0  0  0  0  0
   24.7415   17.7451   16.4542 H   0  0  0  0  0  0  0  0  0  0  0  0
   26.4010   17.9633   15.8482 H   0  0  0  0  0  0  0  0  0  0  0  0
   26.2063   19.4973   10.1196 H   0  0  0  0  0  0  0  0  0  0  0  0
   26.7632   19.4115    8.4459 H   0  0  0  0  0  0  0  0  0  0  0  0
   25.4765   20.5520    8.8823 H   0  0  0  0  0  0  0  0  0  0  0  0
   25.3860   18.4813    6.7901 H   0  0  0  0  0  0  0  0  0  0  0  0
   23.8658   17.6917    7.1998 H   0  0  0  0  0  0  0  0  0  0  0  0
   23.9701   19.4715    7.1798 H   0  0  0  0  0  0  0  0  0  0  0  0
   22.3683   17.2134    8.7368 H   0  0  0  0  0  0  0  0  0  0  0  0
   23.7409   16.2464    9.3140 H   0  0  0  0  0  0  0  0  0  0  0  0
   22.5101   16.8122   10.4478 H   0  0  0  0  0  0  0  0  0  0  0  0
   23.4671   20.4510   10.2061 H   0  0  0  0  0  0  0  0  0  0  0  0
   22.4613   19.7384    8.9331 H   0  0  0  0  0  0  0  0  0  0  0  0
   22.1516   19.3508   10.6276 H   0  0  0  0  0  0  0  0  0  0  0  0
   23.4043   19.3177   13.3522 H   0  0  0  0  0  0  0  0  0  0  0  0
   22.8734   18.6407   14.9105 H   0  0  0  0  0  0  0  0  0  0  0  0
   22.7618   21.1183   14.9414 H   0  0  0  0  0  0  0  0  0  0  0  0
   24.4892   21.2236   14.5776 H   0  0  0  0  0  0  0  0  0  0  0  0
   21.4338   20.8022   18.2822 H   0  0  0  0  0  0  0  0  0  0  0  0
   20.8804   22.4083   17.7717 H   0  0  0  0  0  0  0  0  0  0  0  0
   21.5370   21.2846   16.5796 H   0  0  0  0  0  0  0  0  0  0  0  0
   22.3430   20.1447   22.2924 H   0  0  0  0  0  0  0  0  0  0  0  0
   20.7297   20.1320   23.0028 H   0  0  0  0  0  0  0  0  0  0  0  0
   21.1642   18.1185   21.6607 H   0  0  0  0  0  0  0  0  0  0  0  0
   19.0138   19.9345   20.4515 H   0  0  0  0  0  0  0  0  0  0  0  0
   18.8687   18.8758   21.8644 H   0  0  0  0  0  0  0  0  0  0  0  0
   19.6314   17.1457   18.1485 H   0  0  0  0  0  0  0  0  0  0  0  0
   19.5113   18.9202   18.2610 H   0  0  0  0  0  0  0  0  0  0  0  0
   21.8765   18.1623   18.2179 H   0  0  0  0  0  0  0  0  0  0  0  0
   21.5738   17.1191   19.6355 H   0  0  0  0  0  0  0  0  0  0  0  0
   20.3345   23.9449   24.6620 H   0  0  0  0  0  0  0  0  0  0  0  0
   18.7455   24.3879   23.9914 H   0  0  0  0  0  0  0  0  0  0  0  0
   18.4188   23.3082   26.2063 H   0  0  0  0  0  0  0  0  0  0  0  0
   19.3559   21.9044   25.6761 H   0  0  0  0  0  0  0  0  0  0  0  0
   16.7212   22.8658   24.4561 H   0  0  0  0  0  0  0  0  0  0  0  0
   16.9319   21.4099   25.4439 H   0  0  0  0  0  0  0  0  0  0  0  0
   15.9829   15.0150   18.2409 H   0  0  0  0  0  0  0  0  0  0  0  0
   17.9436   16.3827   18.0983 H   0  0  0  0  0  0  0  0  0  0  0  0
   17.2874   17.8816   22.0818 H   0  0  0  0  0  0  0  0  0  0  0  0
  1  4  1  0  0  0  0
  3  4  1  0  0  0  0
  3  7  1  0  0  0  0
  2 10  4  0  0  0  0
  4 10  1  0  0  0  0
  8 11  1  0  0  0  0
  2 13  4  0  0  0  0
 13 16  4  0  0  0  0
 16 19  4  0  0  0  0
 10 22  4  0  0  0  0
 19 22  4  0  0  0  0
  5 25  1  0  0  0  0
 22 25  1  0  0  0  0
  5 27  1  0  0  0  0
 27 28  1  0  0  0  0
 25 29  2  0  0  0  0
 29 30  1  0  0  0  0
 30 31  1  0  0  0  0
 31 32  1  0  0  0  0
 31 33  1  0  0  0  0
  6 34  1  0  0  0  0
 31 34  1  0  0  0  0
  6 35  1  0  0  0  0
 24 35  2  0  0  0  0
  8 36  1  0  0  0  0
 35 36  1  0  0  0  0
 11 37  4  0  0  0  0
 21 37  2  0  0  0  0
 14 38  1  0  0  0  0
 37 38  1  0  0  0  0
 14 39  4  0  0  0  0
 15 39  2  0  0  0  0
 17 40  1  0  0  0  0
 39 40  1  0  0  0  0
 40 41  1  0  0  0  0
 41 42  1  0  0  0  0
 41 43  1  0  0  0  0
 12 44  2  0  0  0  0
 17 44  4  0  0  0  0
 44 45  1  0  0  0  0
 45 46  1  0  0  0  0
 20 47  1  0  0  0  0
 46 47  1  0  0  0  0
  9 48  2  0  0  0  0
 20 48  4  0  0  0  0
 48 49  1  0  0  0  0
 49 50  3  0  0  0  0
 23 51  1  0  0  0  0
 50 51  1  0  0  0  0
 23 52  1  0  0  0  0
 23 53  1  0  0  0  0
 51 54  1  0  0  0  0
 51 55  1  0  0  0  0
 20 56  1  0  0  0  0
 45 57  1  0  0  0  0
 56 57  1  0  0  0  0
 17 58  1  0  0  0  0
 38 59  1  0  0  0  0
 18 60  1  0  0  0  0
 59 60  1  0  0  0  0
 26 61  1  0  0  0  0
 60 61  1  0  0  0  0
 26 62  1  0  0  0  0
 18 63  1  0  0  0  0
 62 63  1  0  0  0  0
 11 64  1  0  0  0  0
 64 65  1  0  0  0  0
 36 66  1  0  0  0  0
 65 66  1  0  0  0  0
 29 67  4  0  0  0  0
  5 68  1  0  0  0  0
 67 68  4  0  0  0  0
 68 69  4  0  0  0  0
 69 70  2  0  0  0  0
 26 71  1  0  0  0  0
 70 71  4  0  0  0  0
 67 72  4  0  0  0  0
 71 72  4  0  0  0  0
 45 73  1  0  0  0  0
  1 74  1  0  0  0  0
  1 75  1  0  0  0  0
  1 76  1  0  0  0  0
  4 77  1  0  0  0  0
  7 78  1  0  0  0  0
  7 79  1  0  0  0  0
  7 80  1  0  0  0  0
 13 81  1  0  0  0  0
 16 82  1  0  0  0  0
 19 83  1  0  0  0  0
 27 84  1  0  0  0  0
 27 85  1  0  0  0  0
 28 86  1  0  0  0  0
 28 87  1  0  0  0  0
 28 88  1  0  0  0  0
 30 89  1  0  0  0  0
 30 90  1  0  0  0  0
 32 91  1  0  0  0  0
 32 92  1  0  0  0  0
 32 93  1  0  0  0  0
 33 94  1  0  0  0  0
 33 95  1  0  0  0  0
 33 96  1  0  0  0  0
 34 97  1  0  0  0  0
 34 98  1  0  0  0  0
 36 99  1  0  0  0  0
  8100  1  0  0  0  0
 38101  1  0  0  0  0
 14102  1  0  0  0  0
 40103  1  0  0  0  0
 41104  1  0  0  0  0
 42105  1  0  0  0  0
 42106  1  0  0  0  0
 42107  1  0  0  0  0
 43108  1  0  0  0  0
 43109  1  0  0  0  0
 43110  1  0  0  0  0
 46111  1  0  0  0  0
 46112  1  0  0  0  0
 47113  1  0  0  0  0
 47114  1  0  0  0  0
 52115  1  0  0  0  0
 52116  1  0  0  0  0
 52117  1  0  0  0  0
 53118  1  0  0  0  0
 53119  1  0  0  0  0
 53120  1  0  0  0  0
 54121  1  0  0  0  0
 54122  1  0  0  0  0
 54123  1  0  0  0  0
 55124  1  0  0  0  0
 55125  1  0  0  0  0
 55126  1  0  0  0  0
 56127  1  0  0  0  0
 56128  1  0  0  0  0
 57129  1  0  0  0  0
 57130  1  0  0  0  0
 58131  1  0  0  0  0
 58132  1  0  0  0  0
 58133  1  0  0  0  0
 59134  1  0  0  0  0
 59135  1  0  0  0  0
 60136  1  0  0  0  0
 61137  1  0  0  0  0
 61138  1  0  0  0  0
 62139  1  0  0  0  0
 62140  1  0  0  0  0
 63141  1  0  0  0  0
 63142  1  0  0  0  0
 64143  1  0  0  0  0
 64144  1  0  0  0  0
 65145  1  0  0  0  0
 65146  1  0  0  0  0
 66147  1  0  0  0  0
 66148  1  0  0  0  0
 69149  1  0  0  0  0
 70150  1  0  0  0  0
 72151  1  0  0  0  0
M  END
