 xtb: 6.7.1 (edcfbbe)
          09282520083D

151157  0     0  0            999 V2000
   11.4298   15.9410   25.1194 C   0  0  0  0  0  0  0  0  0  0  0  0
   12.0016   13.4749   23.9087 N   0  0  0  0  0  0  0  0  0  0  0  0
   10.4045   15.8066   22.9075 O   0  0  0  0  0  0  0  0  0  0  0  0
   11.6500   15.8410   23.6094 C   0  0  0  0  0  0  0  0  0  0  0  0
   13.1117   16.3231   20.6679 N   0  0  0  0  0  0  0  0  0  0  0  0
   17.9518   18.4367   23.1208 O   0  0  0  0  0  0  0  0  0  0  0  0
    9.8235   17.0788   22.7024 C   0  0  0  0  0  0  0  0  0  0  0  0
   20.4572   20.5536   22.5143 N   0  0  0  0  0  0  0  0  0  0  0  0
   22.2960   17.1370   13.8342 O   0  0  0  0  0  0  0  0  0  0  0  0
   12.4011   14.5672   23.2723 C   0  0  0  0  0  0  0  0  0  0  0  0
   21.7517   20.6460   21.9923 N   0  0  0  0  0  0  0  0  0  0  0  0
   22.6040   22.1503   16.2803 O   0  0  0  0  0  0  0  0  0  0  0  0
   12.6195   12.3297   23.6876 C   0  0  0  0  0  0  0  0  0  0  0  0
   21.0501   22.1439   18.8169 N   0  0  0  0  0  0  0  0  0  0  0  0
   19.1766   23.4104   18.8444 O   0  0  0  0  0  0  0  0  0  0  0  0
   13.6957   12.2031   22.8230 C   0  0  0  0  0  0  0  0  0  0  0  0
   20.6537   23.2331   16.0165 N   0  0  0  0  0  0  0  0  0  0  0  0
   18.8226   20.3829   17.4366 O   0  0  0  0  0  0  0  0  0  0  0  0
   14.1191   13.3350   22.1515 C   0  0  0  0  0  0  0  0  0  0  0  0
   22.1616   19.2032   12.9026 N   0  0  0  0  0  0  0  0  0  0  0  0
   23.0792   21.0461   20.2200 O   0  0  0  0  0  0  0  0  0  0  0  0
   13.4651   14.5498   22.3582 C   0  0  0  0  0  0  0  0  0  0  0  0
   27.5044   17.1393   12.9472 N   0  0  0  0  0  0  0  0  0  0  0  0
   18.5746   19.9597   24.6529 O   0  0  0  0  0  0  0  0  0  0  0  0
   13.9166   15.7321   21.6163 C   0  0  0  0  0  0  0  0  0  0  0  0
   16.4433   20.4338   19.0354 N   0  0  0  0  0  0  0  0  0  0  0  0
   11.9385   15.7143   20.0957 C   0  0  0  0  0  0  0  0  0  0  0  0
   12.3141   14.6643   19.0509 C   0  0  0  0  0  0  0  0  0  0  0  0
   15.1265   16.3852   21.6936 C   0  0  0  0  0  0  0  0  0  0  0  0
   16.2759   16.0302   22.5826 C   0  0  0  0  0  0  0  0  0  0  0  0
   16.3446   16.7875   23.9280 C   0  0  0  0  0  0  0  0  0  0  0  0
   17.4530   16.1696   24.7848 C   0  0  0  0  0  0  0  0  0  0  0  0
   15.0132   16.6966   24.6703 C   0  0  0  0  0  0  0  0  0  0  0  0
   16.6464   18.2747   23.6917 C   0  0  0  0  0  0  0  0  0  0  0  0
   18.8046   19.2567   23.6926 C   0  0  0  0  0  0  0  0  0  0  0  0
   20.1620   19.2063   23.0059 C   0  0  0  0  0  0  0  0  0  0  0  0
   21.9572   20.9694   20.7058 C   0  0  0  0  0  0  0  0  0  0  0  0
   20.6996   21.2301   19.8760 C   0  0  0  0  0  0  0  0  0  0  0  0
   20.2895   23.1572   18.3987 C   0  0  0  0  0  0  0  0  0  0  0  0
   20.9362   23.9571   17.2589 C   0  0  0  0  0  0  0  0  0  0  0  0
   20.5001   25.4267   17.2325 C   0  0  0  0  0  0  0  0  0  0  0  0
   21.1769   26.1673   16.0809 C   0  0  0  0  0  0  0  0  0  0  0  0
   20.8871   26.0752   18.5618 C   0  0  0  0  0  0  0  0  0  0  0  0
   21.5895   22.3713   15.6105 C   0  0  0  0  0  0  0  0  0  0  0  0
   21.4477   21.6133   14.2827 C   0  0  0  0  0  0  0  0  0  0  0  0
   20.7482   20.2747   14.5447 C   0  0  0  0  0  0  0  0  0  0  0  0
   20.7841   19.3809   13.3020 C   0  0  0  0  0  0  0  0  0  0  0  0
   22.8444   18.1351   13.3642 C   0  0  0  0  0  0  0  0  0  0  0  0
   24.2762   18.2275   13.2882 C   0  0  0  0  0  0  0  0  0  0  0  0
   25.4741   18.2423   13.4157 C   0  0  0  0  0  0  0  0  0  0  0  0
   26.9233   18.3477   13.5474 C   0  0  0  0  0  0  0  0  0  0  0  0
   27.0764   15.9130   13.5937 C   0  0  0  0  0  0  0  0  0  0  0  0
   28.9436   17.1599   12.7862 C   0  0  0  0  0  0  0  0  0  0  0  0
   27.3525   19.6083   12.7799 C   0  0  0  0  0  0  0  0  0  0  0  0
   27.2364   18.5307   15.0487 C   0  0  0  0  0  0  0  0  0  0  0  0
   22.7962   20.4361   12.4998 C   0  0  0  0  0  0  0  0  0  0  0  0
   22.8424   21.4094   13.6780 C   0  0  0  0  0  0  0  0  0  0  0  0
   19.3090   23.3641   15.4993 C   0  0  0  0  0  0  0  0  0  0  0  0
   20.2231   19.8684   19.3363 C   0  0  0  0  0  0  0  0  0  0  0  0
   18.8099   19.8394   18.7539 C   0  0  0  0  0  0  0  0  0  0  0  0
   17.7662   20.5834   19.6058 C   0  0  0  0  0  0  0  0  0  0  0  0
   16.4702   20.9859   17.6943 C   0  0  0  0  0  0  0  0  0  0  0  0
   17.5374   20.2789   16.8493 C   0  0  0  0  0  0  0  0  0  0  0  0
   22.8415   20.2329   22.8635 C   0  0  0  0  0  0  0  0  0  0  0  0
   22.5972   18.7934   23.3139 C   0  0  0  0  0  0  0  0  0  0  0  0
   21.2312   18.7065   23.9905 C   0  0  0  0  0  0  0  0  0  0  0  0
   15.0776   17.4398   20.7303 C   0  0  0  0  0  0  0  0  0  0  0  0
   13.8147   17.3536   20.1027 C   0  0  0  0  0  0  0  0  0  0  0  0
   13.4590   18.2557   19.1095 C   0  0  0  0  0  0  0  0  0  0  0  0
   14.3553   19.2397   18.7664 C   0  0  0  0  0  0  0  0  0  0  0  0
   15.6336   19.3464   19.3593 C   0  0  0  0  0  0  0  0  0  0  0  0
   15.9905   18.4204   20.3348 C   0  0  0  0  0  0  0  0  0  0  0  0
   20.7004   22.3503   13.3567 F   0  0  0  0  0  0  0  0  0  0  0  0
   12.3862   15.9503   25.6316 H   0  0  0  0  0  0  0  0  0  0  0  0
   10.8876   16.8488   25.3667 H   0  0  0  0  0  0  0  0  0  0  0  0
   10.8563   15.0788   25.4451 H   0  0  0  0  0  0  0  0  0  0  0  0
   12.2305   16.7026   23.2483 H   0  0  0  0  0  0  0  0  0  0  0  0
   10.3392   17.6111   21.8897 H   0  0  0  0  0  0  0  0  0  0  0  0
    8.7816   16.8952   22.4257 H   0  0  0  0  0  0  0  0  0  0  0  0
    9.8536   17.6924   23.6086 H   0  0  0  0  0  0  0  0  0  0  0  0
   12.2320   11.4817   24.2370 H   0  0  0  0  0  0  0  0  0  0  0  0
   14.1794   11.2512   22.6756 H   0  0  0  0  0  0  0  0  0  0  0  0
   14.9432   13.2934   21.4540 H   0  0  0  0  0  0  0  0  0  0  0  0
   11.3498   15.2518   20.8921 H   0  0  0  0  0  0  0  0  0  0  0  0
   11.3368   16.4989   19.6336 H   0  0  0  0  0  0  0  0  0  0  0  0
   11.4159   14.2493   18.6045 H   0  0  0  0  0  0  0  0  0  0  0  0
   12.9252   15.1097   18.2695 H   0  0  0  0  0  0  0  0  0  0  0  0
   12.8768   13.8579   19.5147 H   0  0  0  0  0  0  0  0  0  0  0  0
   16.2244   14.9641   22.8116 H   0  0  0  0  0  0  0  0  0  0  0  0
   17.2053   16.2192   22.0418 H   0  0  0  0  0  0  0  0  0  0  0  0
   17.2078   15.1384   25.0280 H   0  0  0  0  0  0  0  0  0  0  0  0
   18.4016   16.1819   24.2509 H   0  0  0  0  0  0  0  0  0  0  0  0
   17.5705   16.7260   25.7136 H   0  0  0  0  0  0  0  0  0  0  0  0
   14.6995   15.6584   24.7456 H   0  0  0  0  0  0  0  0  0  0  0  0
   15.1051   17.1074   25.6717 H   0  0  0  0  0  0  0  0  0  0  0  0
   14.2466   17.2519   24.1376 H   0  0  0  0  0  0  0  0  0  0  0  0
   16.6060   18.8340   24.6300 H   0  0  0  0  0  0  0  0  0  0  0  0
   15.9294   18.6973   22.9854 H   0  0  0  0  0  0  0  0  0  0  0  0
   20.0933   18.5327   22.1454 H   0  0  0  0  0  0  0  0  0  0  0  0
   20.3537   21.2078   23.2919 H   0  0  0  0  0  0  0  0  0  0  0  0
   19.9342   21.6917   20.5004 H   0  0  0  0  0  0  0  0  0  0  0  0
   21.9466   21.9708   18.3733 H   0  0  0  0  0  0  0  0  0  0  0  0
   22.0227   23.9210   17.3892 H   0  0  0  0  0  0  0  0  0  0  0  0
   19.4144   25.4800   17.1276 H   0  0  0  0  0  0  0  0  0  0  0  0
   20.8330   27.1967   16.0535 H   0  0  0  0  0  0  0  0  0  0  0  0
   22.2555   26.1693   16.2222 H   0  0  0  0  0  0  0  0  0  0  0  0
   20.9618   25.7048   15.1226 H   0  0  0  0  0  0  0  0  0  0  0  0
   20.6632   27.1371   18.5360 H   0  0  0  0  0  0  0  0  0  0  0  0
   20.3332   25.6253   19.3817 H   0  0  0  0  0  0  0  0  0  0  0  0
   21.9498   25.9476   18.7501 H   0  0  0  0  0  0  0  0  0  0  0  0
   21.2785   19.7817   15.3616 H   0  0  0  0  0  0  0  0  0  0  0  0
   19.7216   20.4388   14.8668 H   0  0  0  0  0  0  0  0  0  0  0  0
   20.2287   19.8420   12.4810 H   0  0  0  0  0  0  0  0  0  0  0  0
   20.3644   18.4008   13.5304 H   0  0  0  0  0  0  0  0  0  0  0  0
   27.5655   15.7425   14.5639 H   0  0  0  0  0  0  0  0  0  0  0  0
   25.9980   15.9322   13.7417 H   0  0  0  0  0  0  0  0  0  0  0  0
   27.3185   15.0761   12.9386 H   0  0  0  0  0  0  0  0  0  0  0  0
   29.2349   17.9829   12.1391 H   0  0  0  0  0  0  0  0  0  0  0  0
   29.4909   17.2339   13.7381 H   0  0  0  0  0  0  0  0  0  0  0  0
   29.2356   16.2297   12.3011 H   0  0  0  0  0  0  0  0  0  0  0  0
   26.7370   20.4441   13.1023 H   0  0  0  0  0  0  0  0  0  0  0  0
   28.3931   19.8493   12.9835 H   0  0  0  0  0  0  0  0  0  0  0  0
   27.2156   19.4566   11.7130 H   0  0  0  0  0  0  0  0  0  0  0  0
   26.8107   19.4655   15.4041 H   0  0  0  0  0  0  0  0  0  0  0  0
   26.8117   17.7192   15.6346 H   0  0  0  0  0  0  0  0  0  0  0  0
   28.3128   18.5560   15.2025 H   0  0  0  0  0  0  0  0  0  0  0  0
   23.8043   20.2291   12.1422 H   0  0  0  0  0  0  0  0  0  0  0  0
   22.2051   20.8690   11.6879 H   0  0  0  0  0  0  0  0  0  0  0  0
   23.2280   22.3758   13.3529 H   0  0  0  0  0  0  0  0  0  0  0  0
   23.4898   21.0220   14.4644 H   0  0  0  0  0  0  0  0  0  0  0  0
   19.1947   24.2978   14.9492 H   0  0  0  0  0  0  0  0  0  0  0  0
   19.0574   22.5412   14.8409 H   0  0  0  0  0  0  0  0  0  0  0  0
   18.6205   23.3567   16.3437 H   0  0  0  0  0  0  0  0  0  0  0  0
   20.9249   19.5454   18.5639 H   0  0  0  0  0  0  0  0  0  0  0  0
   20.2549   19.1476   20.1517 H   0  0  0  0  0  0  0  0  0  0  0  0
   18.5019   18.7806   18.6724 H   0  0  0  0  0  0  0  0  0  0  0  0
   17.9987   21.6531   19.5724 H   0  0  0  0  0  0  0  0  0  0  0  0
   17.7932   20.2506   20.6418 H   0  0  0  0  0  0  0  0  0  0  0  0
   15.5073   20.9025   17.2015 H   0  0  0  0  0  0  0  0  0  0  0  0
   16.7336   22.0452   17.7828 H   0  0  0  0  0  0  0  0  0  0  0  0
   17.6100   20.7369   15.8628 H   0  0  0  0  0  0  0  0  0  0  0  0
   17.2725   19.2153   16.7400 H   0  0  0  0  0  0  0  0  0  0  0  0
   23.7659   20.3299   22.2945 H   0  0  0  0  0  0  0  0  0  0  0  0
   22.8732   20.9030   23.7286 H   0  0  0  0  0  0  0  0  0  0  0  0
   23.3841   18.4802   23.9942 H   0  0  0  0  0  0  0  0  0  0  0  0
   22.6155   18.1393   22.4413 H   0  0  0  0  0  0  0  0  0  0  0  0
   21.2099   19.3400   24.8784 H   0  0  0  0  0  0  0  0  0  0  0  0
   21.0130   17.6851   24.2940 H   0  0  0  0  0  0  0  0  0  0  0  0
   12.5003   18.2074   18.6166 H   0  0  0  0  0  0  0  0  0  0  0  0
   14.0472   19.9592   18.0256 H   0  0  0  0  0  0  0  0  0  0  0  0
   16.9628   18.4431   20.7997 H   0  0  0  0  0  0  0  0  0  0  0  0
  1  4  1  0  0  0  0
  3  4  1  0  0  0  0
  3  7  1  0  0  0  0
  2 10  4  0  0  0  0
  4 10  1  0  0  0  0
  8 11  1  0  0  0  0
  2 13  4  0  0  0  0
 13 16  4  0  0  0  0
 16 19  4  0  0  0  0
 10 22  4  0  0  0  0
 19 22  4  0  0  0  0
  5 25  1  0  0  0  0
 22 25  1  0  0  0  0
  5 27  1  0  0  0  0
 27 28  1  0  0  0  0
 25 29  2  0  0  0  0
 29 30  1  0  0  0  0
 30 31  1  0  0  0  0
 31 32  1  0  0  0  0
 31 33  1  0  0  0  0
  6 34  1  0  0  0  0
 31 34  1  0  0  0  0
  6 35  4  0  0  0  0
 24 35  2  0  0  0  0
  8 36  1  0  0  0  0
 35 36  1  0  0  0  0
 11 37  4  0  0  0  0
 21 37  2  0  0  0  0
 14 38  1  0  0  0  0
 37 38  1  0  0  0  0
 14 39  4  0  0  0  0
 15 39  2  0  0  0  0
 17 40  1  0  0  0  0
 39 40  1  0  0  0  0
 40 41  1  0  0  0  0
 41 42  1  0  0  0  0
 41 43  1  0  0  0  0
 12 44  2  0  0  0  0
 17 44  4  0  0  0  0
 44 45  1  0  0  0  0
 45 46  1  0  0  0  0
 20 47  1  0  0  0  0
 46 47  1  0  0  0  0
  9 48  2  0  0  0  0
 20 48  4  0  0  0  0
 48 49  1  0  0  0  0
 49 50  3  0  0  0  0
 23 51  1  0  0  0  0
 50 51  1  0  0  0  0
 23 52  1  0  0  0  0
 23 53  1  0  0  0  0
 51 54  1  0  0  0  0
 51 55  1  0  0  0  0
 20 56  1  0  0  0  0
 45 57  1  0  0  0  0
 56 57  1  0  0  0  0
 17 58  1  0  0  0  0
 38 59  1  0  0  0  0
 18 60  1  0  0  0  0
 59 60  1  0  0  0  0
 26 61  1  0  0  0  0
 60 61  1  0  0  0  0
 26 62  1  0  0  0  0
 18 63  1  0  0  0  0
 62 63  1  0  0  0  0
 11 64  1  0  0  0  0
 64 65  1  0  0  0  0
 36 66  1  0  0  0  0
 65 66  1  0  0  0  0
 29 67  4  0  0  0  0
  5 68  1  0  0  0  0
 67 68  4  0  0  0  0
 68 69  4  0  0  0  0
 69 70  2  0  0  0  0
 26 71  1  0  0  0  0
 70 71  4  0  0  0  0
 67 72  4  0  0  0  0
 71 72  4  0  0  0  0
 45 73  1  0  0  0  0
  1 74  1  0  0  0  0
  1 75  1  0  0  0  0
  1 76  1  0  0  0  0
  4 77  1  0  0  0  0
  7 78  1  0  0  0  0
  7 79  1  0  0  0  0
  7 80  1  0  0  0  0
 13 81  1  0  0  0  0
 16 82  1  0  0  0  0
 19 83  1  0  0  0  0
 27 84  1  0  0  0  0
 27 85  1  0  0  0  0
 28 86  1  0  0  0  0
 28 87  1  0  0  0  0
 28 88  1  0  0  0  0
 30 89  1  0  0  0  0
 30 90  1  0  0  0  0
 32 91  1  0  0  0  0
 32 92  1  0  0  0  0
 32 93  1  0  0  0  0
 33 94  1  0  0  0  0
 33 95  1  0  0  0  0
 33 96  1  0  0  0  0
 34 97  1  0  0  0  0
 34 98  1  0  0  0  0
 36 99  1  0  0  0  0
  8100  1  0  0  0  0
 38101  1  0  0  0  0
 14102  1  0  0  0  0
 40103  1  0  0  0  0
 41104  1  0  0  0  0
 42105  1  0  0  0  0
 42106  1  0  0  0  0
 42107  1  0  0  0  0
 43108  1  0  0  0  0
 43109  1  0  0  0  0
 43110  1  0  0  0  0
 46111  1  0  0  0  0
 46112  1  0  0  0  0
 47113  1  0  0  0  0
 47114  1  0  0  0  0
 52115  1  0  0  0  0
 52116  1  0  0  0  0
 52117  1  0  0  0  0
 53118  1  0  0  0  0
 53119  1  0  0  0  0
 53120  1  0  0  0  0
 54121  1  0  0  0  0
 54122  1  0  0  0  0
 54123  1  0  0  0  0
 55124  1  0  0  0  0
 55125  1  0  0  0  0
 55126  1  0  0  0  0
 56127  1  0  0  0  0
 56128  1  0  0  0  0
 57129  1  0  0  0  0
 57130  1  0  0  0  0
 58131  1  0  0  0  0
 58132  1  0  0  0  0
 58133  1  0  0  0  0
 59134  1  0  0  0  0
 59135  1  0  0  0  0
 60136  1  0  0  0  0
 61137  1  0  0  0  0
 61138  1  0  0  0  0
 62139  1  0  0  0  0
 62140  1  0  0  0  0
 63141  1  0  0  0  0
 63142  1  0  0  0  0
 64143  1  0  0  0  0
 64144  1  0  0  0  0
 65145  1  0  0  0  0
 65146  1  0  0  0  0
 66147  1  0  0  0  0
 66148  1  0  0  0  0
 69149  1  0  0  0  0
 70150  1  0  0  0  0
 72151  1  0  0  0  0
M  END
